<polygons>
    <poly id="antenna_area_50" color="1,0,0" shape="55.0,25.0 54.2403876506104,33.68240888334652 51.98463103929542,42.10100716628344 48.30127018922194,50.0 43.302222155948904,57.13938048432696 37.13938048432697,63.302222155948904 30.000000000000007,68.30127018922192 22.10100716628344,71.98463103929541 13.68240888334652,74.2403876506104 5.000000000000003,75.0 -3.6824088833465147,74.2403876506104 -12.101007166283424,71.98463103929542 -19.99999999999999,68.30127018922194 -27.13938048432697,63.302222155948904 -33.3022221559489,57.13938048432697 -38.301270189221924,50.000000000000014 -41.984631039295415,42.101007166283445 -44.2403876506104,33.68240888334651 -45.0,25.000000000000007 -44.24038765061041,16.3175911166535 -41.98463103929542,7.898992833716566 -38.30127018922193,-7.105427357601002e-15 -33.30222215594892,-7.139380484326949 -27.13938048432697,-13.302222155948897 -20.00000000000002,-18.301270189221917 -12.101007166283427,-21.984631039295422 -3.6824088833465165,-24.2403876506104 4.999999999999991,-25.0 13.682408883346499,-24.24038765061041 22.10100716628345,-21.984631039295415 29.999999999999968,-18.301270189221952 37.13938048432696,-13.302222155948904 43.30222215594889,-7.139380484326978 48.30127018922194,1.7763568394002505e-14 51.98463103929542,7.898992833716569 54.2403876506104,16.31759111665348 55.0,25.0"/>
</polygons>