<polygons>
    <poly id="antenna_area_300" color="1,0,0" shape="305.0,25.0 300.4423259036624,77.0944533000791 286.9077862357725,127.60604299770061 264.8076211353316,174.99999999999997 234.8133329356934,217.83628290596178 197.8362829059618,254.8133329356934 155.00000000000003,284.8076211353316 107.60604299770064,306.9077862357725 57.094453300079124,320.4423259036624 5.000000000000019,325.0 -47.09445330007909,320.4423259036624 -97.60604299770054,306.9077862357725 -144.99999999999994,284.8076211353316 -187.8362829059618,254.8133329356934 -224.81333293569338,217.83628290596184 -254.80762113533154,175.0000000000001 -276.9077862357725,127.60604299770067 -290.4423259036624,77.09445330007908 -295.0,25.000000000000036 -290.44232590366244,-27.09445330007901 -276.9077862357725,-77.6060429977006 -254.8076211353316,-125.00000000000003 -224.8133329356935,-167.83628290596167 -187.83628290596184,-204.81333293569338 -145.00000000000014,-234.8076211353315 -97.60604299770057,-256.9077862357725 -47.0944533000791,-270.4423259036624 4.999999999999945,-275.0 57.09445330007899,-270.44232590366244 107.6060429977007,-256.9077862357725 154.9999999999998,-234.80762113533171 197.83628290596178,-204.81333293569344 234.81333293569332,-167.83628290596187 264.80762113533166,-124.99999999999989 286.9077862357725,-77.60604299770058 300.4423259036624,-27.094453300079117 305.0,25.0"/>
</polygons>