<polygons>
    <poly id="car_area" color="0,0,1" shape="50.0,0.0 49.2403876506104,8.682408883346517 46.98463103929542,17.101007166283434 43.30127018922194,24.999999999999996 38.302222155948904,32.13938048432696 32.13938048432697,38.302222155948904 25.000000000000007,43.30127018922193 17.10100716628344,46.984631039295415 8.68240888334652,49.2403876506104 3.061616997868383e-15,50.0 -8.682408883346515,49.2403876506104 -17.101007166283424,46.98463103929542 -24.99999999999999,43.30127018922194 -32.13938048432697,38.302222155948904 -38.3022221559489,32.13938048432697 -43.301270189221924,25.000000000000018 -46.984631039295415,17.101007166283445 -49.2403876506104,8.682408883346513 -50.0,6.123233995736766e-15 -49.24038765061041,-8.6824088833465 -46.98463103929542,-17.101007166283434 -43.30127018922193,-25.000000000000007 -38.30222215594892,-32.13938048432695 -32.13938048432697,-38.3022221559489 -25.00000000000002,-43.30127018922192 -17.101007166283427,-46.98463103929542 -8.682408883346517,-49.2403876506104 -9.184850993605149e-15,-50.0 8.682408883346499,-49.24038765061041 17.10100716628345,-46.984631039295415 24.999999999999968,-43.30127018922195 32.13938048432696,-38.302222155948904 38.30222215594889,-32.13938048432698 43.30127018922194,-24.999999999999982 46.98463103929542,-17.10100716628343 49.2403876506104,-8.68240888334652 50.0,0.0"/>
</polygons>