<?xml version="1.0" encoding="UTF-8"?>

<!-- generated on 2023-12-18 01:34:43 by Eclipse SUMO netedit Version 1.19.0
-->

<routes xmlns:xsi="http://www.w3.org/2001/XMLSchema-instance" xsi:noNamespaceSchemaLocation="http://sumo.dlr.de/xsd/routes_file.xsd">
    <!-- VTypes -->
    <vType id="C-VEH" maxSpeed="22.22" color="red"/>
    <vType id="N-VEH" maxSpeed="16.66" color="white"/>
    <vType id="E-CDA" maxSpeed="22.22" color="yellow" laneChangeModel="KETI2023" carFollowModel="IDM" accel="2.60" tau="1.00"/>
    <!-- Routes -->
    <route id="route_main" edges="E4to3 E3to2 E2to1 E1to0"/>
    <route id="route_join" edges="E5to6 E6to2 E2to1 E1to0"/>
    <!-- Vehicles, persons and containers (sorted by depart) -->
    <vehicle id="n-veh" type="N-VEH" depart="0.00" route="route_main"/>
    <vehicle id="e-cda" type="E-CDA" depart="3.00" route="route_join"/>
    <vehicle id="c-veh" type="C-VEH" depart="4.00" route="route_main"/>
</routes>

