<?xml version="1.0" encoding="UTF-8"?>

<!-- generated on 2022-07-01 14:06:45 by Eclipse SUMO netedit Version 1.13.0
<configuration xmlns:xsi="http://www.w3.org/2001/XMLSchema-instance" xsi:noNamespaceSchemaLocation="http://sumo.dlr.de/xsd/netconvertConfiguration.xsd">

    <input>
        <sumo-net-file value="C:\Git\sumo\trunk\Pangyo.net.xml"/>
    </input>

    <output>
        <output-file value="C:\Git\sumo\trunk\Network.net.xml"/>
        <plain-output-prefix value=""/>
        <junctions.join-output value=""/>
    </output>

    <processing>
        <geometry.min-radius.fix.railways value="false"/>
        <geometry.max-grade.fix value="false"/>
        <offset.disable-normalization value="true"/>
        <lefthand value="false"/>
    </processing>

    <junctions>
        <no-internal-links value="true"/>
        <no-turnarounds value="true"/>
        <junctions.corner-detail value="5"/>
        <junctions.limit-turn-speed value="5.5"/>
        <rectangular-lane-cut value="false"/>
    </junctions>

    <pedestrian>
        <walkingareas value="false"/>
    </pedestrian>

    <netedit>
        <additional-files value="C:\Git\sumo\trunk\Additonal.xml"/>
    </netedit>

    <report>
        <aggregate-warnings value="5"/>
    </report>

</configuration>
-->

<net version="1.9" junctionCornerDetail="5" limitTurnSpeed="5.50" xmlns:xsi="http://www.w3.org/2001/XMLSchema-instance" xsi:noNamespaceSchemaLocation="http://sumo.dlr.de/xsd/net_file.xsd">

    <location netOffset="0.00,0.00" convBoundary="-1101.66,55.00,-173.00,1577.90" origBoundary="-10000000000.00,-10000000000.00,10000000000.00,10000000000.00" projParameter="!"/>

    <edge id="-E0" from="J13" to="J1" priority="-1">
        <lane id="-E0_0" index="0" speed="13.89" length="35.99" shape="-477.80,1227.20 -492.99,1227.20"/>
        <lane id="-E0_1" index="1" speed="13.89" length="35.99" shape="-477.80,1224.00 -492.99,1224.00"/>
        <lane id="-E0_2" index="2" speed="13.89" length="35.99" shape="-477.80,1220.80 -492.99,1220.80"/>
        <lane id="-E0_3" index="3" speed="13.89" length="35.99" shape="-477.80,1217.60 -492.99,1217.60"/>
    </edge>
    <edge id="-E1" from="J3" to="J2" priority="-1">
        <lane id="-E1_0" index="0" speed="13.89" length="54.40" shape="-622.28,1204.80 -575.88,1204.80"/>
        <lane id="-E1_1" index="1" speed="13.89" length="54.40" shape="-622.28,1208.00 -575.88,1208.00"/>
        <lane id="-E1_2" index="2" speed="13.89" length="54.40" shape="-622.28,1211.20 -575.88,1211.20"/>
        <lane id="-E1_3" index="3" speed="13.89" length="54.40" shape="-622.28,1214.40 -575.88,1214.40"/>
    </edge>
    <edge id="-E100" from="J74" to="J73" priority="-1">
        <lane id="-E100_0" index="0" speed="13.89" length="51.75" shape="-349.00,984.00 -392.75,984.00"/>
        <lane id="-E100_1" index="1" speed="13.89" length="51.75" shape="-349.00,980.80 -392.75,980.80"/>
        <lane id="-E100_2" index="2" speed="13.89" length="51.75" shape="-349.00,977.60 -392.75,977.60"/>
    </edge>
    <edge id="-E101" from="J75" to="J74" priority="-1">
        <lane id="-E101_0" index="0" speed="13.89" length="31.75" shape="-317.25,980.80 -341.00,980.80"/>
        <lane id="-E101_1" index="1" speed="13.89" length="31.75" shape="-317.25,977.60 -341.00,977.60"/>
    </edge>
    <edge id="-E102" from="J18" to="J75" priority="-1">
        <lane id="-E102_0" index="0" speed="13.89" length="28.25" shape="-292.20,977.60 -309.25,977.60"/>
    </edge>
    <edge id="-E103" from="J32" to="J76" priority="-1">
        <lane id="-E103_0" index="0" speed="13.89" length="27.55" shape="-180.51,866.87 -196.68,866.58"/>
        <lane id="-E103_1" index="1" speed="13.89" length="27.55" shape="-180.46,863.67 -196.62,863.38"/>
        <lane id="-E103_2" index="2" speed="13.89" length="27.55" shape="-180.40,860.47 -196.57,860.18"/>
    </edge>
    <edge id="-E104" from="J76" to="J31" priority="-1">
        <lane id="-E104_0" index="0" speed="13.89" length="84.46" shape="-204.48,866.53 -274.61,866.94"/>
        <lane id="-E104_1" index="1" speed="13.89" length="84.46" shape="-204.50,863.33 -274.63,863.74"/>
        <lane id="-E104_2" index="2" speed="13.89" length="84.46" shape="-204.52,860.13 -274.65,860.54"/>
    </edge>
    <edge id="-E105" from="J10" to="J77" priority="-1">
        <lane id="-E105_0" index="0" speed="13.89" length="56.88" shape="-883.18,1227.20 -918.32,1227.20"/>
        <lane id="-E105_1" index="1" speed="13.89" length="56.88" shape="-883.18,1224.00 -918.32,1224.00"/>
        <lane id="-E105_2" index="2" speed="13.89" length="56.88" shape="-883.18,1220.80 -918.32,1220.80"/>
        <lane id="-E105_3" index="3" speed="13.89" length="56.88" shape="-883.18,1217.60 -918.32,1217.60"/>
    </edge>
    <edge id="-E107" from="J79" to="J78" priority="-1">
        <lane id="-E107_0" index="0" speed="13.89" length="79.87" shape="-807.96,1087.54 -831.03,1155.61"/>
        <lane id="-E107_1" index="1" speed="13.89" length="79.87" shape="-810.99,1086.52 -834.06,1154.58"/>
        <lane id="-E107_2" index="2" speed="13.89" length="79.87" shape="-814.02,1085.49 -837.09,1153.55"/>
        <lane id="-E107_3" index="3" speed="13.89" length="79.87" shape="-817.05,1084.46 -840.12,1152.53"/>
    </edge>
    <edge id="-E108" from="J80" to="J79" priority="-1">
        <lane id="-E108_0" index="0" speed="13.89" length="37.18" shape="-793.19,1053.18 -802.35,1080.88"/>
        <lane id="-E108_1" index="1" speed="13.89" length="37.18" shape="-796.23,1052.17 -805.39,1079.88"/>
        <lane id="-E108_2" index="2" speed="13.89" length="37.18" shape="-799.27,1051.17 -808.43,1078.87"/>
        <lane id="-E108_3" index="3" speed="13.89" length="37.18" shape="-802.31,1050.16 -811.47,1077.87"/>
        <lane id="-E108_4" index="4" speed="13.89" length="37.18" shape="-805.35,1049.16 -814.51,1076.87"/>
    </edge>
    <edge id="-E109" from="J81" to="J80" priority="-1">
        <lane id="-E109_0" index="0" speed="13.89" length="117.75" shape="-760.30,939.91 -793.72,1044.46"/>
        <lane id="-E109_1" index="1" speed="13.89" length="117.75" shape="-763.34,938.93 -796.77,1043.49"/>
        <lane id="-E109_2" index="2" speed="13.89" length="117.75" shape="-766.39,937.96 -799.82,1042.51"/>
        <lane id="-E109_3" index="3" speed="13.89" length="117.75" shape="-769.44,936.98 -802.87,1041.54"/>
    </edge>
    <edge id="-E11" from="J2" to="J1" priority="-1">
        <lane id="-E11_0" index="0" speed="13.89" length="74.89" shape="-567.88,1208.00 -500.99,1208.00"/>
        <lane id="-E11_1" index="1" speed="13.89" length="74.89" shape="-567.88,1211.20 -500.99,1211.20"/>
        <lane id="-E11_2" index="2" speed="13.89" length="74.89" shape="-567.88,1214.40 -500.99,1214.40"/>
    </edge>
    <edge id="-E110" from="J82" to="J81" priority="-1">
        <lane id="-E110_0" index="0" speed="13.89" length="37.82" shape="-748.40,904.16 -757.86,932.46"/>
        <lane id="-E110_1" index="1" speed="13.89" length="37.82" shape="-751.44,903.15 -760.90,931.45"/>
        <lane id="-E110_2" index="2" speed="13.89" length="37.82" shape="-754.47,902.13 -763.93,930.43"/>
        <lane id="-E110_3" index="3" speed="13.89" length="37.82" shape="-757.51,901.12 -766.97,929.42"/>
    </edge>
    <edge id="-E111" from="J22" to="J82" priority="-1">
        <lane id="-E111_0" index="0" speed="13.89" length="40.05" shape="-731.62,865.45 -742.85,897.79"/>
        <lane id="-E111_1" index="1" speed="13.89" length="40.05" shape="-734.64,864.40 -745.87,896.74"/>
        <lane id="-E111_2" index="2" speed="13.89" length="40.05" shape="-737.66,863.35 -748.89,895.69"/>
        <lane id="-E111_3" index="3" speed="13.89" length="40.05" shape="-740.69,862.30 -751.92,894.64"/>
        <lane id="-E111_4" index="4" speed="13.89" length="40.05" shape="-743.71,861.25 -754.94,893.59"/>
    </edge>
    <edge id="-E112" from="J83" to="J78" priority="-1">
        <lane id="-E112_0" index="0" speed="13.89" length="23.51" shape="-862.73,1169.78 -857.85,1155.06"/>
        <lane id="-E112_1" index="1" speed="13.89" length="23.51" shape="-859.69,1170.79 -854.81,1156.07"/>
        <lane id="-E112_2" index="2" speed="13.89" length="23.51" shape="-856.65,1171.80 -851.77,1157.08"/>
        <lane id="-E112_3" index="3" speed="13.89" length="23.51" shape="-853.62,1172.80 -848.73,1158.08"/>
        <lane id="-E112_4" index="4" speed="13.89" length="23.51" shape="-850.58,1173.81 -845.70,1159.09"/>
    </edge>
    <edge id="-E113" from="J10" to="J83" priority="-1">
        <lane id="-E113_0" index="0" speed="13.89" length="39.49" shape="-868.79,1189.90 -865.26,1177.86"/>
        <lane id="-E113_1" index="1" speed="13.89" length="39.49" shape="-865.72,1190.80 -862.18,1178.77"/>
        <lane id="-E113_2" index="2" speed="13.89" length="39.49" shape="-862.65,1191.70 -859.11,1179.67"/>
        <lane id="-E113_3" index="3" speed="13.89" length="39.49" shape="-859.58,1192.60 -856.04,1180.57"/>
        <lane id="-E113_4" index="4" speed="13.89" length="39.49" shape="-856.51,1193.50 -852.97,1181.47"/>
    </edge>
    <edge id="-E114" from="J84" to="J22" priority="-1">
        <lane id="-E114_0" index="0" speed="13.89" length="59.88" shape="-712.61,809.19 -724.30,851.52"/>
        <lane id="-E114_1" index="1" speed="13.89" length="59.88" shape="-715.70,808.34 -727.38,850.67"/>
        <lane id="-E114_2" index="2" speed="13.89" length="59.88" shape="-718.78,807.49 -730.47,849.82"/>
        <lane id="-E114_3" index="3" speed="13.89" length="59.88" shape="-721.87,806.64 -733.55,848.96"/>
        <lane id="-E114_4" index="4" speed="13.89" length="59.88" shape="-724.95,805.79 -736.63,848.11"/>
        <lane id="-E114_5" index="5" speed="13.89" length="59.88" shape="-728.04,804.94 -739.72,847.26"/>
    </edge>
    <edge id="-E115" from="J85" to="J84" priority="-1">
        <lane id="-E115_0" index="0" speed="13.89" length="269.11" shape="-689.03,538.84 -717.21,799.29"/>
        <lane id="-E115_1" index="1" speed="13.89" length="269.11" shape="-692.21,538.50 -720.39,798.94"/>
        <lane id="-E115_2" index="2" speed="13.89" length="269.11" shape="-695.39,538.16 -723.57,798.60"/>
        <lane id="-E115_3" index="3" speed="13.89" length="269.11" shape="-698.58,537.81 -726.75,798.25"/>
    </edge>
    <edge id="-E116" from="J23" to="J85" priority="-1">
        <lane id="-E116_0" index="0" speed="13.89" length="68.63" shape="-675.12,472.30 -684.90,532.18"/>
        <lane id="-E116_1" index="1" speed="13.89" length="68.63" shape="-678.28,471.78 -688.06,531.67"/>
        <lane id="-E116_2" index="2" speed="13.89" length="68.63" shape="-681.43,471.27 -691.22,531.15"/>
        <lane id="-E116_3" index="3" speed="13.89" length="68.63" shape="-684.59,470.75 -694.37,530.63"/>
        <lane id="-E116_4" index="4" speed="13.89" length="68.63" shape="-687.75,470.23 -697.53,530.12"/>
    </edge>
    <edge id="-E12" from="J7" to="J13" priority="-1">
        <lane id="-E12_0" index="0" speed="13.89" length="79.00" shape="-465.80,1287.80 -465.80,1232.80"/>
        <lane id="-E12_1" index="1" speed="13.89" length="79.00" shape="-462.60,1287.80 -462.60,1232.80"/>
    </edge>
    <edge id="-E13" from="J14" to="J13" priority="-1">
        <lane id="-E13_0" index="0" speed="13.89" length="288.00" shape="-182.05,1217.60 -444.20,1217.60"/>
    </edge>
    <edge id="-E14" from="J15" to="J9" priority="-1">
        <lane id="-E14_0" index="0" speed="13.89" length="85.00" shape="-732.40,1134.20 -732.40,1199.20"/>
    </edge>
    <edge id="-E16" from="J16" to="J55" priority="-1">
        <lane id="-E16_0" index="0" speed="13.89" length="40.95" shape="-481.05,1132.60 -497.95,1132.60"/>
    </edge>
    <edge id="-E2" from="J5" to="J4" priority="-1">
        <lane id="-E2_0" index="0" speed="13.89" length="131.47" shape="-975.19,1479.16 -1064.34,1566.75"/>
    </edge>
    <edge id="-E21" from="J20" to="J19" priority="-1">
        <lane id="-E21_0" index="0" speed="13.89" length="105.00" shape="-555.60,971.20 -481.00,971.20"/>
        <lane id="-E21_1" index="1" speed="13.89" length="105.00" shape="-555.60,974.40 -481.00,974.40"/>
    </edge>
    <edge id="-E22" from="J21" to="J20" priority="-1">
        <lane id="-E22_0" index="0" speed="13.89" length="117.00" shape="-561.20,866.20 -561.20,965.60"/>
        <lane id="-E22_1" index="1" speed="13.89" length="117.00" shape="-564.40,866.20 -564.40,965.60"/>
    </edge>
    <edge id="-E23" from="J22" to="J21" priority="-1">
        <lane id="-E23_0" index="0" speed="13.89" length="178.62" shape="-719.82,857.40 -573.20,857.40"/>
    </edge>
    <edge id="-E26" from="J24" to="J23" priority="-1">
        <lane id="-E26_0" index="0" speed="13.89" length="239.98" shape="-805.33,264.71 -689.95,460.68"/>
    </edge>
    <edge id="-E27" from="J25" to="J24" priority="-1">
        <lane id="-E27_0" index="0" speed="13.89" length="273.92" shape="-1023.33,86.84 -816.03,252.67"/>
    </edge>
    <edge id="-E28" from="J26" to="J24" priority="-1">
        <lane id="-E28_0" index="0" speed="13.89" length="404.72" shape="-468.46,61.21 -803.40,256.94"/>
    </edge>
    <edge id="-E29" from="J27" to="J26" priority="-1">
        <lane id="-E29_0" index="0" speed="13.89" length="156.00" shape="-462.60,203.80 -462.60,64.58"/>
    </edge>
    <edge id="-E3" from="J3" to="J9" priority="-1">
        <lane id="-E3_0" index="0" speed="13.89" length="107.72" shape="-630.28,1224.00 -723.60,1224.00"/>
        <lane id="-E3_1" index="1" speed="13.89" length="107.72" shape="-630.28,1220.80 -723.60,1220.80"/>
        <lane id="-E3_2" index="2" speed="13.89" length="107.72" shape="-630.28,1217.60 -723.60,1217.60"/>
    </edge>
    <edge id="-E30" from="J28" to="J27" priority="-1">
        <lane id="-E30_0" index="0" speed="13.89" length="255.00" shape="-462.60,458.80 -462.60,218.20"/>
    </edge>
    <edge id="-E31" from="J29" to="J28" priority="-1">
        <lane id="-E31_0" index="0" speed="13.89" length="168.00" shape="-462.60,626.80 -462.60,473.20"/>
    </edge>
    <edge id="-E32" from="J30" to="J29" priority="-1">
        <lane id="-E32_0" index="0" speed="13.89" length="225.00" shape="-462.60,845.40 -462.60,641.20"/>
    </edge>
    <edge id="-E34" from="J30" to="J21" priority="-1">
        <lane id="-E34_0" index="0" speed="13.89" length="105.00" shape="-477.80,860.60 -555.60,860.60"/>
    </edge>
    <edge id="-E35" from="J31" to="J30" priority="-1">
        <lane id="-E35_0" index="0" speed="13.89" length="176.00" shape="-292.20,867.00 -444.20,867.00"/>
        <lane id="-E35_1" index="1" speed="13.89" length="176.00" shape="-292.20,863.80 -444.20,863.80"/>
        <lane id="-E35_2" index="2" speed="13.89" length="176.00" shape="-292.20,860.60 -444.20,860.60"/>
    </edge>
    <edge id="-E37" from="J18" to="J31" priority="-1">
        <lane id="-E37_0" index="0" speed="13.89" length="117.00" shape="-286.60,965.60 -286.60,872.60"/>
    </edge>
    <edge id="-E38" from="J32" to="J14" priority="-1">
        <lane id="-E38_0" index="0" speed="13.89" length="357.00" shape="-171.40,872.54 -171.40,1208.80"/>
    </edge>
    <edge id="-E39" from="J33" to="J32" priority="-1">
        <lane id="-E39_0" index="0" speed="13.89" length="163.78" shape="-171.40,701.69 -171.40,845.34"/>
    </edge>
    <edge id="-E40" from="J34" to="J33" priority="-1">
        <lane id="-E40_0" index="0" speed="13.89" length="130.22" shape="-171.40,572.20 -171.40,687.07"/>
    </edge>
    <edge id="-E41" from="J35" to="J34" priority="-1">
        <lane id="-E41_0" index="0" speed="13.89" length="99.00" shape="-171.40,473.20 -171.40,557.80"/>
    </edge>
    <edge id="-E42" from="J36" to="J35" priority="-1">
        <lane id="-E42_0" index="0" speed="13.89" length="255.00" shape="-171.40,218.20 -171.40,458.80"/>
    </edge>
    <edge id="-E43" from="J37" to="J36" priority="-1">
        <lane id="-E43_0" index="0" speed="13.89" length="156.00" shape="-171.40,58.20 -171.40,203.80"/>
    </edge>
    <edge id="-E44" from="J27" to="J36" priority="-1">
        <lane id="-E44_0" index="0" speed="13.89" length="288.00" shape="-453.80,209.40 -180.20,209.40"/>
    </edge>
    <edge id="-E45" from="J55" to="J56" priority="-1">
        <lane id="-E45_0" index="0" speed="13.89" length="50.35" shape="-505.95,1139.00 -548.30,1139.00"/>
        <lane id="-E45_1" index="1" speed="13.89" length="50.35" shape="-505.95,1135.80 -548.30,1135.80"/>
        <lane id="-E45_2" index="2" speed="13.89" length="50.35" shape="-505.95,1132.60 -548.30,1132.60"/>
    </edge>
    <edge id="-E46" from="J23" to="J28" priority="-1">
        <lane id="-E46_0" index="0" speed="13.89" length="227.68" shape="-669.59,464.40 -468.20,464.40"/>
    </edge>
    <edge id="-E47" from="J39" to="J38" priority="-1">
        <lane id="-E47_0" index="0" speed="13.89" length="108.00" shape="-304.20,566.60 -397.80,566.60"/>
    </edge>
    <edge id="-E48" from="J40" to="J39" priority="-1">
        <lane id="-E48_0" index="0" speed="13.89" length="60.00" shape="-244.20,566.60 -289.80,566.60"/>
    </edge>
    <edge id="-E49" from="J34" to="J40" priority="-1">
        <lane id="-E49_0" index="0" speed="13.89" length="64.00" shape="-180.20,566.60 -229.80,566.60"/>
    </edge>
    <edge id="-E50" from="J41" to="J29" priority="-1">
        <lane id="-E50_0" index="0" speed="13.89" length="56.00" shape="-412.20,635.60 -453.80,635.60"/>
    </edge>
    <edge id="-E51" from="J33" to="J41" priority="-1">
        <lane id="-E51_0" index="0" speed="13.89" length="239.94" shape="-181.29,694.69 -399.16,637.20"/>
    </edge>
    <edge id="-E52" from="J38" to="J41" priority="-1">
        <lane id="-E52_0" index="0" speed="13.89" length="69.00" shape="-403.40,572.20 -403.40,626.80"/>
    </edge>
    <edge id="-E53" from="J42" to="J38" priority="-1">
        <lane id="-E53_0" index="0" speed="13.89" length="99.00" shape="-403.40,473.20 -403.40,557.80"/>
    </edge>
    <edge id="-E54" from="J42" to="J28" priority="-1">
        <lane id="-E54_0" index="0" speed="13.89" length="56.00" shape="-412.20,467.60 -453.80,467.60"/>
    </edge>
    <edge id="-E55" from="J43" to="J42" priority="-1">
        <lane id="-E55_0" index="0" speed="13.89" length="168.00" shape="-244.20,467.60 -397.80,467.60"/>
    </edge>
    <edge id="-E56" from="J35" to="J43" priority="-1">
        <lane id="-E56_0" index="0" speed="13.89" length="64.00" shape="-180.20,467.60 -229.80,467.60"/>
    </edge>
    <edge id="-E58" from="J56" to="J64" priority="-1">
        <lane id="-E58_0" index="0" speed="13.89" length="26.77" shape="-556.30,1135.80 -575.07,1135.80"/>
        <lane id="-E58_1" index="1" speed="13.89" length="26.77" shape="-556.30,1132.60 -575.07,1132.60"/>
    </edge>
    <edge id="-E59" from="J46" to="J39" priority="-1">
        <lane id="-E59_0" index="0" speed="13.89" length="53.00" shape="-295.40,515.20 -295.40,557.80"/>
    </edge>
    <edge id="-E6" from="J9" to="J6" priority="-1">
        <lane id="-E6_0" index="0" speed="13.89" length="79.00" shape="-729.20,1236.00 -729.20,1285.39"/>
        <lane id="-E6_1" index="1" speed="13.89" length="79.00" shape="-732.40,1236.00 -732.40,1285.39"/>
    </edge>
    <edge id="-E60" from="J47" to="J46" priority="-1">
        <lane id="-E60_0" index="0" speed="13.89" length="60.00" shape="-244.20,513.60 -293.80,513.60"/>
    </edge>
    <edge id="-E61" from="J48" to="J39" priority="-1">
        <lane id="-E61_0" index="0" speed="13.89" length="79.00" shape="-298.60,640.80 -298.60,572.20"/>
    </edge>
    <edge id="-E62" from="J49" to="J48" priority="-1">
        <lane id="-E62_0" index="0" speed="13.89" length="60.00" shape="-240.20,645.60 -293.80,645.60"/>
    </edge>
    <edge id="-E63" from="J64" to="J15" priority="-1">
        <lane id="-E63_0" index="0" speed="13.89" length="154.93" shape="-583.07,1132.60 -730.80,1132.60"/>
    </edge>
    <edge id="-E64" from="J50" to="J24" priority="-1">
        <lane id="-E64_0" index="0" speed="13.89" length="346.41" shape="-1102.53,445.42 -818.40,262.43"/>
    </edge>
    <edge id="-E65" from="J37" to="J26" priority="-1">
        <lane id="-E65_0" index="0" speed="13.89" length="288.00" shape="-176.20,56.60 -453.80,56.60"/>
    </edge>
    <edge id="-E66" from="J47" to="J43" priority="-1">
        <lane id="-E66_0" index="0" speed="13.89" length="46.00" shape="-238.60,504.80 -238.60,473.20"/>
    </edge>
    <edge id="-E67" from="J40" to="J47" priority="-1">
        <lane id="-E67_0" index="0" speed="13.89" length="53.00" shape="-238.60,557.80 -238.60,519.20"/>
    </edge>
    <edge id="-E68" from="J49" to="J40" priority="-1">
        <lane id="-E68_0" index="0" speed="13.89" length="79.00" shape="-238.60,640.80 -238.60,572.20"/>
    </edge>
    <edge id="-E69" from="J14" to="J51" priority="-1">
        <lane id="-E69_0" index="0" speed="13.89" length="400.09" shape="-175.41,1224.86 -342.13,1578.58"/>
    </edge>
    <edge id="-E7" from="J10" to="J9" priority="-1">
        <lane id="-E7_0" index="0" speed="13.89" length="127.44" shape="-833.67,1204.80 -744.40,1204.80"/>
        <lane id="-E7_1" index="1" speed="13.89" length="127.44" shape="-833.67,1208.00 -744.40,1208.00"/>
        <lane id="-E7_2" index="2" speed="13.89" length="127.44" shape="-833.67,1211.20 -744.40,1211.20"/>
        <lane id="-E7_3" index="3" speed="13.89" length="127.44" shape="-833.67,1214.40 -744.40,1214.40"/>
    </edge>
    <edge id="-E70" from="J52" to="J11" priority="-1">
        <lane id="-E70_0" index="0" speed="13.89" length="62.58" shape="-1047.55,1460.62 -1005.77,1431.88"/>
        <lane id="-E70_1" index="1" speed="13.89" length="62.58" shape="-1045.74,1463.26 -1003.96,1434.52"/>
        <lane id="-E70_2" index="2" speed="13.89" length="62.58" shape="-1043.93,1465.90 -1002.15,1437.15"/>
    </edge>
    <edge id="-E71" from="J12" to="J52" priority="-1">
        <lane id="-E71_0" index="0" speed="13.89" length="62.55" shape="-1104.11,1494.57 -1053.71,1464.57"/>
        <lane id="-E71_1" index="1" speed="13.89" length="62.55" shape="-1102.47,1497.32 -1052.07,1467.32"/>
        <lane id="-E71_2" index="2" speed="13.89" length="62.55" shape="-1100.84,1500.07 -1050.43,1470.07"/>
    </edge>
    <edge id="-E72" from="J17" to="J65" priority="-1">
        <lane id="-E72_0" index="0" speed="13.89" length="52.69" shape="-292.15,1135.80 -333.69,1135.80"/>
        <lane id="-E72_1" index="1" speed="13.89" length="52.69" shape="-292.15,1132.60 -333.69,1132.60"/>
    </edge>
    <edge id="-E73" from="J11" to="J53" priority="-1">
        <lane id="-E73_0" index="0" speed="13.89" length="85.38" shape="-995.44,1422.90 -945.26,1367.86"/>
        <lane id="-E73_1" index="1" speed="13.89" length="85.38" shape="-993.07,1425.06 -942.90,1370.02"/>
        <lane id="-E73_2" index="2" speed="13.89" length="85.38" shape="-990.71,1427.21 -940.53,1372.17"/>
    </edge>
    <edge id="-E74" from="J54" to="J10" priority="-1">
        <lane id="-E74_0" index="0" speed="13.89" length="84.30" shape="-896.81,1286.96 -878.92,1233.10"/>
        <lane id="-E74_1" index="1" speed="13.89" length="84.30" shape="-893.77,1287.96 -875.89,1234.11"/>
        <lane id="-E74_2" index="2" speed="13.89" length="84.30" shape="-890.74,1288.97 -872.85,1235.12"/>
        <lane id="-E74_3" index="3" speed="13.89" length="84.30" shape="-887.70,1289.98 -869.81,1236.13"/>
    </edge>
    <edge id="-E75" from="J53" to="J54" priority="-1">
        <lane id="-E75_0" index="0" speed="13.89" length="89.61" shape="-942.45,1364.12 -900.29,1294.50"/>
        <lane id="-E75_1" index="1" speed="13.89" length="89.61" shape="-939.71,1365.78 -897.56,1296.16"/>
        <lane id="-E75_2" index="2" speed="13.89" length="89.61" shape="-936.98,1367.44 -894.82,1297.81"/>
    </edge>
    <edge id="-E76" from="J65" to="J16" priority="-1">
        <lane id="-E76_0" index="0" speed="13.89" length="123.31" shape="-341.69,1139.00 -441.00,1139.00"/>
        <lane id="-E76_1" index="1" speed="13.89" length="123.31" shape="-341.69,1135.80 -441.00,1135.80"/>
        <lane id="-E76_2" index="2" speed="13.89" length="123.31" shape="-341.69,1132.60 -441.00,1132.60"/>
    </edge>
    <edge id="-E77" from="J18" to="J66" priority="-1">
        <lane id="-E77_0" index="0" speed="13.89" length="61.47" shape="-280.12,983.11 -279.54,1033.45"/>
        <lane id="-E77_1" index="1" speed="13.89" length="61.47" shape="-283.32,983.15 -282.74,1033.49"/>
    </edge>
    <edge id="-E78" from="J66" to="J17" priority="-1">
        <lane id="-E78_0" index="0" speed="13.89" length="93.54" shape="-276.33,1041.50 -276.95,1123.91"/>
        <lane id="-E78_1" index="1" speed="13.89" length="93.54" shape="-279.53,1041.48 -280.15,1123.89"/>
        <lane id="-E78_2" index="2" speed="13.89" length="93.54" shape="-282.73,1041.46 -283.35,1123.87"/>
    </edge>
    <edge id="-E79" from="J6" to="J57" priority="-1">
        <lane id="-E79_0" index="0" speed="13.89" length="76.67" shape="-737.08,1299.35 -790.90,1340.24"/>
    </edge>
    <edge id="-E80" from="J57" to="J5" priority="-1">
        <lane id="-E80_0" index="0" speed="13.89" length="220.56" shape="-797.30,1345.06 -962.07,1468.28"/>
    </edge>
    <edge id="-E81" from="J59" to="J58" priority="-1">
        <lane id="-E81_0" index="0" speed="13.89" length="78.00" shape="-550.00,1296.60 -620.00,1296.60"/>
    </edge>
    <edge id="-E82" from="J58" to="J6" priority="-1">
        <lane id="-E82_0" index="0" speed="13.89" length="110.00" shape="-628.00,1296.60 -723.60,1296.60"/>
    </edge>
    <edge id="-E83" from="J7" to="J59" priority="-1">
        <lane id="-E83_0" index="0" speed="13.89" length="85.00" shape="-480.71,1296.60 -542.00,1296.60"/>
    </edge>
    <edge id="-E84" from="J8" to="J60" priority="-1">
        <lane id="-E84_0" index="0" speed="13.89" length="59.58" shape="-318.80,1326.95 -373.15,1315.34"/>
    </edge>
    <edge id="-E85" from="J60" to="J7" priority="-1">
        <lane id="-E85_0" index="0" speed="13.89" length="86.16" shape="-381.64,1316.80 -452.35,1301.75"/>
        <lane id="-E85_1" index="1" speed="13.89" length="86.16" shape="-380.98,1313.67 -451.69,1298.62"/>
    </edge>
    <edge id="-E86" from="J13" to="J61" priority="-1">
        <lane id="-E86_0" index="0" speed="13.89" length="19.83" shape="-472.20,1198.18 -472.20,1197.99"/>
        <lane id="-E86_1" index="1" speed="13.89" length="19.83" shape="-469.00,1198.18 -469.00,1197.99"/>
        <lane id="-E86_2" index="2" speed="13.89" length="19.83" shape="-465.80,1198.18 -465.80,1197.99"/>
        <lane id="-E86_3" index="3" speed="13.89" length="19.83" shape="-462.60,1198.18 -462.60,1197.99"/>
    </edge>
    <edge id="-E87" from="J16" to="J67" priority="-1">
        <lane id="-E87_0" index="0" speed="13.89" length="28.23" shape="-472.20,1117.40 -472.20,1106.77"/>
        <lane id="-E87_1" index="1" speed="13.89" length="28.23" shape="-469.00,1117.40 -469.00,1106.77"/>
        <lane id="-E87_2" index="2" speed="13.89" length="28.23" shape="-465.80,1117.40 -465.80,1106.77"/>
        <lane id="-E87_3" index="3" speed="13.89" length="28.23" shape="-462.60,1117.40 -462.60,1106.77"/>
    </edge>
    <edge id="-E88" from="J68" to="J67" priority="-1">
        <lane id="-E88_0" index="0" speed="13.89" length="46.44" shape="-449.80,1060.33 -449.80,1098.77"/>
        <lane id="-E88_1" index="1" speed="13.89" length="46.44" shape="-453.00,1060.33 -453.00,1098.77"/>
        <lane id="-E88_2" index="2" speed="13.89" length="46.44" shape="-456.20,1060.33 -456.20,1098.77"/>
        <lane id="-E88_3" index="3" speed="13.89" length="46.44" shape="-459.40,1060.33 -459.40,1098.77"/>
    </edge>
    <edge id="-E89" from="J62" to="J61" priority="-1">
        <lane id="-E89_0" index="0" speed="13.89" length="38.55" shape="-449.80,1161.63 -449.80,1192.17"/>
        <lane id="-E89_1" index="1" speed="13.89" length="38.55" shape="-453.00,1161.63 -453.00,1192.17"/>
        <lane id="-E89_2" index="2" speed="13.89" length="38.55" shape="-456.20,1161.63 -456.20,1192.17"/>
        <lane id="-E89_3" index="3" speed="13.89" length="38.55" shape="-459.40,1161.63 -459.40,1192.17"/>
    </edge>
    <edge id="-E9" from="J5" to="J11" priority="-1">
        <lane id="-E9_0" index="0" speed="13.89" length="45.71" shape="-977.07,1467.40 -989.11,1446.76"/>
    </edge>
    <edge id="-E90" from="J16" to="J63" priority="-1">
        <lane id="-E90_0" index="0" speed="13.89" length="14.59" shape="-453.19,1143.07 -453.19,1143.27"/>
        <lane id="-E90_1" index="1" speed="13.89" length="14.59" shape="-456.39,1143.02 -456.39,1143.22"/>
        <lane id="-E90_2" index="2" speed="13.89" length="14.59" shape="-459.59,1142.97 -459.59,1143.17"/>
    </edge>
    <edge id="-E91" from="J62" to="J63" priority="-1">
        <lane id="-E91_0" index="0" speed="13.89" length="12.03" shape="-472.27,1153.86 -472.35,1149.72"/>
        <lane id="-E91_1" index="1" speed="13.89" length="12.03" shape="-469.07,1153.80 -469.15,1149.66"/>
        <lane id="-E91_2" index="2" speed="13.89" length="12.03" shape="-465.88,1153.74 -465.95,1149.59"/>
        <lane id="-E91_3" index="3" speed="13.89" length="12.03" shape="-462.68,1153.68 -462.75,1149.53"/>
    </edge>
    <edge id="-E92" from="J68" to="J69" priority="-1">
        <lane id="-E92_0" index="0" speed="13.89" length="28.69" shape="-469.00,1052.33 -469.00,1031.64"/>
        <lane id="-E92_1" index="1" speed="13.89" length="28.69" shape="-465.80,1052.33 -465.80,1031.64"/>
        <lane id="-E92_2" index="2" speed="13.89" length="28.69" shape="-462.60,1052.33 -462.60,1031.64"/>
    </edge>
    <edge id="-E93" from="J70" to="J69" priority="-1">
        <lane id="-E93_0" index="0" speed="13.89" length="32.93" shape="-453.00,998.71 -453.00,1023.64"/>
        <lane id="-E93_1" index="1" speed="13.89" length="32.93" shape="-456.20,998.71 -456.20,1023.64"/>
        <lane id="-E93_2" index="2" speed="13.89" length="32.93" shape="-459.40,998.71 -459.40,1023.64"/>
    </edge>
    <edge id="-E95" from="J19" to="J70" priority="-1">