<?xml version="1.0" encoding="UTF-8"?>

<!-- generated on 2022-07-01 14:06:17 by Eclipse SUMO netedit Version 1.13.0
<configuration xmlns:xsi="http://www.w3.org/2001/XMLSchema-instance" xsi:noNamespaceSchemaLocation="http://sumo.dlr.de/xsd/netconvertConfiguration.xsd">

    <input>
        <sumo-net-file value="C:\Git\sumo\trunk\Pangyo.net.xml"/>
    </input>

    <output>
        <output-file value="C:\Git\sumo\trunk\Network.net.xml"/>
        <plain-output-prefix value="C:\Git\sumo\trunk\Plain"/>
    </output>

    <processing>
        <geometry.min-radius.fix.railways value="false"/>
        <geometry.max-grade.fix value="false"/>
        <offset.disable-normalization value="true"/>
        <lefthand value="false"/>
    </processing>

    <junctions>
        <no-internal-links value="true"/>
        <no-turnarounds value="true"/>
        <junctions.corner-detail value="5"/>
        <junctions.limit-turn-speed value="5.5"/>
        <rectangular-lane-cut value="false"/>
    </junctions>

    <pedestrian>
        <walkingareas value="false"/>
    </pedestrian>

    <report>
        <aggregate-warnings value="5"/>
    </report>

</configuration>
-->

<connections version="1.9" xmlns:xsi="http://www.w3.org/2001/XMLSchema-instance" xsi:noNamespaceSchemaLocation="http://sumo.dlr.de/xsd/connections_file.xsd">
    <connection from="-E0" to="E11" fromLane="0" toLane="0"/>
    <connection from="-E0" to="E11" fromLane="1" toLane="1"/>
    <connection from="-E0" to="E11" fromLane="2" toLane="2"/>

    <connection from="-E1" to="-E11" fromLane="0" toLane="0"/>
    <connection from="-E1" to="-E11" fromLane="1" toLane="1"/>
    <connection from="-E1" to="-E11" fromLane="2" toLane="2"/>

    <connection from="-E100" to="-E99" fromLane="0" toLane="0"/>
    <connection from="-E100" to="-E99" fromLane="1" toLane="1"/>
    <connection from="-E100" to="-E99" fromLane="2" toLane="2"/>

    <connection from="-E101" to="-E100" fromLane="0" toLane="0"/>
    <connection from="-E101" to="-E100" fromLane="1" toLane="1"/>
    <connection from="-E101" to="-E100" fromLane="1" toLane="2"/>

    <connection from="-E102" to="-E101" fromLane="0" toLane="0"/>
    <connection from="-E102" to="-E101" fromLane="0" toLane="1"/>

    <connection from="-E103" to="-E104" fromLane="0" toLane="0"/>
    <connection from="-E103" to="-E104" fromLane="1" toLane="1"/>
    <connection from="-E103" to="-E104" fromLane="2" toLane="2"/>

    <connection from="-E104" to="E37" fromLane="0" toLane="0"/>
    <connection from="-E104" to="-E35" fromLane="0" toLane="0"/>
    <connection from="-E104" to="-E35" fromLane="1" toLane="1"/>
    <connection from="-E104" to="-E35" fromLane="2" toLane="2"/>

    <connection from="-E105"/>

    <connection from="-E107" to="E112" fromLane="0" toLane="0"/>
    <connection from="-E107" to="E112" fromLane="1" toLane="1"/>
    <connection from="-E107" to="E112" fromLane="2" toLane="2"/>
    <connection from="-E107" to="E112" fromLane="3" toLane="3"/>
    <connection from="-E107" to="E112" fromLane="3" toLane="4"/>

    <connection from="-E108" to="-E107" fromLane="0" toLane="0"/>
    <connection from="-E108" to="-E107" fromLane="1" toLane="1"/>
    <connection from="-E108" to="-E107" fromLane="2" toLane="2"/>
    <connection from="-E108" to="-E107" fromLane="3" toLane="3"/>

    <connection from="-E109" to="-E108" fromLane="0" toLane="0"/>
    <connection from="-E109" to="-E108" fromLane="1" toLane="1"/>
    <connection from="-E109" to="-E108" fromLane="2" toLane="2"/>
    <connection from="-E109" to="-E108" fromLane="3" toLane="3"/>
    <connection from="-E109" to="-E108" fromLane="3" toLane="4"/>

    <connection from="-E11" to="E0" fromLane="0" toLane="0"/>
    <connection from="-E11" to="E0" fromLane="1" toLane="1"/>
    <connection from="-E11" to="E0" fromLane="2" toLane="2"/>
    <connection from="-E11" to="E0" fromLane="2" toLane="3"/>
    <connection from="-E11" to="E0" fromLane="2" toLane="4"/>

    <connection from="-E110" to="-E109" fromLane="0" toLane="0"/>
    <connection from="-E110" to="-E109" fromLane="1" toLane="1"/>
    <connection from="-E110" to="-E109" fromLane="2" toLane="2"/>
    <connection from="-E110" to="-E109" fromLane="3" toLane="3"/>

    <connection from="-E111" to="-E110" fromLane="0" toLane="0"/>
    <connection from="-E111" to="-E110" fromLane="1" toLane="1"/>
    <connection from="-E111" to="-E110" fromLane="2" toLane="2"/>
    <connection from="-E111" to="-E110" fromLane="3" toLane="3"/>

    <connection from="-E112" to="E107" fromLane="0" toLane="0"/>
    <connection from="-E112" to="E107" fromLane="1" toLane="1"/>
    <connection from="-E112" to="E107" fromLane="2" toLane="2"/>
    <connection from="-E112" to="E107" fromLane="3" toLane="3"/>

    <connection from="-E113" to="-E112" fromLane="0" toLane="0"/>
    <connection from="-E113" to="-E112" fromLane="1" toLane="1"/>
    <connection from="-E113" to="-E112" fromLane="2" toLane="2"/>
    <connection from="-E113" to="-E112" fromLane="3" toLane="3"/>
    <connection from="-E113" to="-E112" fromLane="4" toLane="4"/>

    <connection from="-E114" to="-E23" fromLane="0" toLane="0"/>
    <connection from="-E114" to="-E111" fromLane="1" toLane="0"/>
    <connection from="-E114" to="-E111" fromLane="2" toLane="1"/>
    <connection from="-E114" to="-E111" fromLane="3" toLane="2"/>
    <connection from="-E114" to="-E111" fromLane="4" toLane="3"/>
    <connection from="-E114" to="-E111" fromLane="5" toLane="4"/>

    <connection from="-E115" to="-E114" fromLane="0" toLane="0"/>
    <connection from="-E115" to="-E114" fromLane="1" toLane="1"/>
    <connection from="-E115" to="-E114" fromLane="2" toLane="2"/>
    <connection from="-E115" to="-E114" fromLane="3" toLane="3"/>
    <connection from="-E115" to="-E114" fromLane="3" toLane="4"/>
    <connection from="-E115" to="-E114" fromLane="3" toLane="5"/>

    <connection from="-E116" to="-E115" fromLane="0" toLane="0"/>
    <connection from="-E116" to="-E115" fromLane="1" toLane="1"/>
    <connection from="-E116" to="-E115" fromLane="2" toLane="2"/>
    <connection from="-E116" to="-E115" fromLane="3" toLane="3"/>

    <connection from="-E12" to="-E0" fromLane="0" toLane="0"/>
    <connection from="-E12" to="-E86" fromLane="0" toLane="0"/>
    <connection from="-E12" to="-E86" fromLane="0" toLane="1"/>
    <connection from="-E12" to="-E86" fromLane="1" toLane="2"/>
    <connection from="-E12" to="-E86" fromLane="1" toLane="3"/>
    <connection from="-E12" to="E13" fromLane="1" toLane="0"/>

    <connection from="-E13" to="E12" fromLane="0" toLane="0"/>
    <connection from="-E13" to="-E0" fromLane="0" toLane="0"/>
    <connection from="-E13" to="-E0" fromLane="0" toLane="1"/>
    <connection from="-E13" to="-E0" fromLane="0" toLane="2"/>
    <connection from="-E13" to="-E0" fromLane="0" toLane="3"/>
    <connection from="-E13" to="-E86" fromLane="0" toLane="3"/>

    <connection from="-E14" to="E3" fromLane="0" toLane="0"/>
    <connection from="-E14" to="-E6" fromLane="0" toLane="1"/>
    <connection from="-E14" to="E7" fromLane="0" toLane="3"/>
    <connection from="-E14" to="E7" fromLane="0" toLane="4"/>

    <connection from="-E16" to="-E45" fromLane="0" toLane="0"/>
    <connection from="-E16" to="-E45" fromLane="0" toLane="1"/>
    <connection from="-E16" to="-E45" fromLane="0" toLane="2"/>

    <connection from="-E2"/>

    <connection from="-E21" to="-E97" fromLane="0" toLane="0"/>
    <connection from="-E21" to="E99" fromLane="0" toLane="0"/>
    <connection from="-E21" to="E99" fromLane="1" toLane="1"/>
    <connection from="-E21" to="-E95" fromLane="1" toLane="2"/>

    <connection from="-E22" to="-E21" fromLane="0" toLane="0"/>
    <connection from="-E22" to="-E21" fromLane="1" toLane="1"/>

    <connection from="-E23" to="E34" fromLane="0" toLane="0"/>
    <connection from="-E23" to="-E22" fromLane="0" toLane="1"/>

    <connection from="-E26" to="-E46" fromLane="0" toLane="0"/>
    <connection from="-E26" to="-E116" fromLane="0" toLane="1"/>
    <connection from="-E26" to="-E116" fromLane="0" toLane="2"/>
    <connection from="-E26" to="-E116" fromLane="0" toLane="3"/>
    <connection from="-E26" to="-E116" fromLane="0" toLane="4"/>

    <connection from="-E27" to="E28" fromLane="0" toLane="0"/>
    <connection from="-E27" to="-E26" fromLane="0" toLane="0"/>
    <connection from="-E27" to="E64" fromLane="0" toLane="0"/>

    <connection from="-E28" to="-E26" fromLane="0" toLane="0"/>
    <connection from="-E28" to="E64" fromLane="0" toLane="0"/>
    <connection from="-E28" to="E27" fromLane="0" toLane="0"/>

    <connection from="-E29" to="-E28" fromLane="0" toLane="0"/>
    <connection from="-E29" to="E65" fromLane="0" toLane="0"/>

    <connection from="-E3" to="-E6" fromLane="0" toLane="0"/>
    <connection from="-E3" to="E7" fromLane="0" toLane="1"/>
    <connection from="-E3" to="E7" fromLane="1" toLane="2"/>
    <connection from="-E3" to="E7" fromLane="2" toLane="3"/>
    <connection from="-E3" to="E14" fromLane="2" toLane="1"/>

    <connection from="-E30" to="-E29" fromLane="0" toLane="0"/>
    <connection from="-E30" to="-E44" fromLane="0" toLane="0"/>

    <connection from="-E31" to="E46" fromLane="0" toLane="0"/>
    <connection from="-E31" to="-E30" fromLane="0" toLane="0"/>
    <connection from="-E31" to="E54" fromLane="0" toLane="0"/>

    <connection from="-E32" to="-E31" fromLane="0" toLane="0"/>
    <connection from="-E32" to="E50" fromLane="0" toLane="0"/>

    <connection from="-E34" to="-E22" fromLane="0" toLane="0"/>
    <connection from="-E34" to="E23" fromLane="0" toLane="0"/>

    <connection from="-E35" to="-E96" fromLane="0" toLane="0"/>
    <connection from="-E35" to="-E96" fromLane="1" toLane="1"/>
    <connection from="-E35" to="-E34" fromLane="1" toLane="0"/>
    <connection from="-E35" to="-E32" fromLane="2" toLane="0"/>

    <connection from="-E37" to="-E35" fromLane="0" toLane="0"/>
    <connection from="-E37" to="E104" fromLane="0" toLane="1"/>

    <connection from="-E38" to="-E69" fromLane="0" toLane="0"/>
    <connection from="-E38" to="-E13" fromLane="0" toLane="0"/>

    <connection from="-E39" to="-E38" fromLane="0" toLane="0"/>
    <connection from="-E39" to="-E103" fromLane="0" toLane="1"/>
    <connection from="-E39" to="-E103" fromLane="0" toLane="2"/>

    <connection from="-E40" to="-E39" fromLane="0" toLane="0"/>
    <connection from="-E40" to="-E51" fromLane="0" toLane="0"/>

    <connection from="-E41" to="-E40" fromLane="0" toLane="0"/>
    <connection from="-E41" to="-E49" fromLane="0" toLane="0"/>

    <connection from="-E42" to="-E41" fromLane="0" toLane="0"/>
    <connection from="-E42" to="-E56" fromLane="0" toLane="0"/>

    <connection from="-E43" to="-E42" fromLane="0" toLane="0"/>
    <connection from="-E43" to="E44" fromLane="0" toLane="0"/>

    <connection from="-E44" to="E43" fromLane="0" toLane="0"/>
    <connection from="-E44" to="-E42" fromLane="0" toLane="0"/>

    <connection from="-E45" to="-E58" fromLane="0" toLane="0"/>
    <connection from="-E45" to="-E58" fromLane="1" toLane="1"/>

    <connection from="-E46" to="-E30" fromLane="0" toLane="0"/>
    <connection from="-E46" to="E54" fromLane="0" toLane="0"/>
    <connection from="-E46" to="E31" fromLane="0" toLane="0"/>

    <connection from="-E47" to="-E52" fromLane="0" toLane="0"/>
    <connection from="-E47" to="E53" fromLane="0" toLane="0"/>

    <connection from="-E48" to="E61" fromLane="0" toLane="0"/>
    <connection from="-E48" to="-E47" fromLane="0" toLane="0"/>
    <connection from="-E48" to="E59" fromLane="0" toLane="0"/>

    <connection from="-E49" to="E68" fromLane="0" toLane="0"/>
    <connection from="-E49" to="-E48" fromLane="0" toLane="0"/>
    <connection from="-E49" to="-E67" fromLane="0" toLane="0"/>

    <connection from="-E50" to="E32" fromLane="0" toLane="0"/>
    <connection from="-E50" to="-E31" fromLane="0" toLane="0"/>

    <connection from="-E51" to="-E50" fromLane="0" toLane="0"/>
    <connection from="-E51" to="E52" fromLane="0" toLane="0"/>

    <connection from="-E52" to="E51" fromLane="0" toLane="0"/>
    <connection from="-E52" to="-E50" fromLane="0" toLane="0"/>

    <connection from="-E53" to="E47" fromLane="0" toLane="0"/>
    <connection from="-E53" to="-E52" fromLane="0" toLane="0"/>

    <connection from="-E54" to="E31" fromLane="0" toLane="0"/>
    <connection from="-E54" to="E46" fromLane="0" toLane="0"/>
    <connection from="-E54" to="-E30" fromLane="0" toLane="0"/>

    <connection from="-E55" to="-E53" fromLane="0" toLane="0"/>
    <connection from="-E55" to="-E54" fromLane="0" toLane="0"/>

    <connection from="-E56" to="E66" fromLane="0" toLane="0"/>
    <connection from="-E56" to="-E55" fromLane="0" toLane="0"/>

    <connection from="-E58" to="-E63" fromLane="0" toLane="0"/>

    <connection from="-E59" to="E48" fromLane="0" toLane="0"/>
    <connection from="-E59" to="E61" fromLane="0" toLane="0"/>
    <connection from="-E59" to="-E47" fromLane="0" toLane="0"/>

    <connection from="-E6" to="E82" fromLane="0" toLane="0"/>
    <connection from="-E6" to="-E79" fromLane="1" toLane="0"/>

    <connection from="-E60" to="-E59" fromLane="0" toLane="0"/>

    <connection from="-E61" to="-E47" fromLane="0" toLane="0"/>
    <connection from="-E61" to="E59" fromLane="0" toLane="0"/>
    <connection from="-E61" to="E48" fromLane="0" toLane="0"/>

    <connection from="-E62" to="-E61" fromLane="0" toLane="0"/>

    <connection from="-E63" to="-E14" fromLane="0" toLane="0"/>

    <connection from="-E64" to="E27" fromLane="0" toLane="0"/>
    <connection from="-E64" to="E28" fromLane="0" toLane="0"/>
    <connection from="-E64" to="-E26" fromLane="0" toLane="0"/>

    <connection from="-E65" to="E29" fromLane="0" toLane="0"/>
    <connection from="-E65" to="-E28" fromLane="0" toLane="0"/>

    <connection from="-E66" to="-E55" fromLane="0" toLane="0"/>
    <connection from="-E66" to="E56" fromLane="0" toLane="0"/>

    <connection from="-E67" to="-E60" fromLane="0" toLane="0"/>
    <connection from="-E67" to="-E66" fromLane="0" toLane="0"/>

    <connection from="-E68" to="-E48" fromLane="0" toLane="0"/>
    <connection from="-E68" to="-E67" fromLane="0" toLane="0"/>
    <connection from="-E68" to="E49" fromLane="0" toLane="0"/>

    <connection from="-E69"/>

    <connection from="-E7" to="E14" fromLane="0" toLane="0"/>
    <connection from="-E7" to="E3" fromLane="0" toLane="0"/>
    <connection from="-E7" to="E3" fromLane="1" toLane="1"/>
    <connection from="-E7" to="E3" fromLane="2" toLane="2"/>
    <connection from="-E7" to="-E6" fromLane="3" toLane="1"/>

    <connection from="-E70" to="-E73" fromLane="0" toLane="0"/>
    <connection from="-E70" to="-E73" fromLane="1" toLane="1"/>
    <connection from="-E70" to="-E73" fromLane="2" toLane="2"/>
    <connection from="-E70" to="E9" fromLane="2" toLane="1"/>

    <connection from="-E71" to="-E70" fromLane="0" toLane="0"/>
    <connection from="-E71" to="-E70" fromLane="1" toLane="1"/>
    <connection from="-E71" to="-E70" fromLane="2" toLane="2"/>

    <connection from="-E72" to="-E76" fromLane="0" toLane="0"/>
    <connection from="-E72" to="-E76" fromLane="1" toLane="1"/>
    <connection from="-E72" to="-E76" fromLane="1" toLane="2"/>

    <connection from="-E73" to="-E75" fromLane="0" toLane="0"/>
    <connection from="-E73" to="-E75" fromLane="1" toLane="1"/>
    <connection from="-E73" to="-E75" fromLane="2" toLane="2"/>

    <connection from="-E74" to="-E105" fromLane="0" toLane="0"/>
    <connection from="-E74" to="-E113" fromLane="0" toLane="1"/>
    <connection from="-E74" to="-E113" fromLane="1" toLane="2"/>
    <connection from="-E74" to="-E113" fromLane="2" toLane="3"/>
    <connection from="-E74" to="-E113" fromLane="3" toLane="4"/>
    <connection from="-E74" to="-E7" fromLane="3" toLane="3"/>

    <connection from="-E75" to="-E74" fromLane="0" toLane="0"/>
    <connection from="-E75" to="-E74" fromLane="1" toLane="1"/>
    <connection from="-E75" to="-E74" fromLane="2" toLane="2"/>
    <connection from="-E75" to="-E74" fromLane="2" toLane="3"/>

    <connection from="-E76" to="-E90" fromLane="0" toLane="0"/>
    <connection from="-E76" to="-E16" fromLane="0" toLane="0"/>
    <connection from="-E76" to="-E87" fromLane="1" toLane="2"/>
    <connection from="-E76" to="-E87" fromLane="2" toLane="3"/>

    <connection from="-E77" to="-E78" fromLane="0" toLane="0"/>
    <connection from="-E77" to="-E78" fromLane="1" toLane="1"/>
    <connection from="-E77" to="-E78" fromLane="1" toLane="2"/>

    <connection from="-E78" to="-E72" fromLane="0" toLane="0"/>
    <connection from="-E78" to="-E72" fromLane="1" toLane="1"/>

    <connection from="-E79" to="-E80" fromLane="0" toLane="0"/>

    <connection from="-E80" to="-E2" fromLane="0" toLane="0"/>
    <connection from="-E80" to="-E9" fromLane="0" toLane="0"/>

    <connection from="-E81" to="-E82" fromLane="0" toLane="0"/>

    <connection from="-E82" to="-E79" fromLane="0" toLane="0"/>
    <connection from="-E82" to="E6" fromLane="0" toLane="0"/>

    <connection from="-E83" to="-E81" fromLane="0" toLane="0"/>

    <connection from="-E84" to="-E85" fromLane="0" toLane="0"/>
    <connection from="-E84" to="-E85" fromLane="0" toLane="1"/>

    <connection from="-E85" to="-E83" fromLane="0" toLane="0"/>
    <connection from="-E85" to="-E12" fromLane="1" toLane="1"/>

    <connection from="-E86" to="E89" fromLane="0" toLane="0"/>
    <connection from="-E86" to="E89" fromLane="1" toLane="1"/>
    <connection from="-E86" to="E89" fromLane="2" toLane="2"/>

    <connection from="-E87" to="E88" fromLane="0" toLane="0"/>
    <connection from="-E87" to="E88" fromLane="1" toLane="1"/>
    <connection from="-E87" to="E88" fromLane="2" toLane="2"/>

    <connection from="-E88" to="E87" fromLane="0" toLane="0"/>
    <connection from="-E88" to="E87" fromLane="1" toLane="1"/>
    <connection from="-E88" to="E87" fromLane="2" toLane="2"/>
    <connection from="-E88" to="E87" fromLane="3" toLane="3"/>
    <connection from="-E88" to="E87" fromLane="3" toLane="4"/>

    <connection from="-E89" to="E86" fromLane="0" toLane="0"/>
    <connection from="-E89" to="E86" fromLane="1" toLane="1"/>
    <connection from="-E89" to="E86" fromLane="2" toLane="2"/>
    <connection from="-E89" to="E86" fromLane="3" toLane="3"/>

    <connection from="-E9" to="E70" fromLane="0" toLane="0"/>
    <connection from="-E9" to="-E73" fromLane="0" toLane="1"/>
    <connection from="-E9" to="-E73" fromLane="0" toLane="2"/>

    <connection from="-E90" to="E91" fromLane="0" toLane="0"/>
    <connection from="-E90" to="E91" fromLane="1" toLane="1"/>
    <connection from="-E90" to="E91" fromLane="2" toLane="2"/>

    <connection from="-E91" to="E90" fromLane="0" toLane="0"/>
    <connection from="-E91" to="E90" fromLane="1" toLane="1"/>
    <connection from="-E91" to="E90" fromLane="2" toLane="2"/>
    <connection from="-E91" to="E90" fromLane="3" toLane="3"/>
    <connection from="-E91" to="E90" fromLane="3" toLane="4"/>

    <connection from="-E92" to="E93" fromLane="0" toLane="0"/>
    <connection from="-E92" to="E93" fromLane="1" toLane="1"/>
    <connection from="-E92" to="E93" fromLane="2" toLane="2"/>
    <connection from="-E92" to="E93" fromLane="2" toLane="3"/>

    <connection from="-E93" to="E92" fromLane="0" toLane="0"/>
    <connection from="-E93" to="E92" fromLane="1" toLane="1"/>
    <connection from="-E93" to="E92" fromLane="2" toLane="2"/>

    <connection from="-E95" to="-E93" fromLane="0" toLane="0"/>
    <connection from="-E95" to="-E93" fromLane="1" toLane="1"/>
    <connection from="-E95" to="-E93" fromLane="2" toLane="2"/>

    <connection from="-E96" to="-E98" fromLane="0" toLane="0"/>
    <connection from="-E96" to="-E98" fromLane="1" toLane="1"/>
    <connection from="-E96" to="-E98" fromLane="2" toLane="2"/>
    <connection from="-E96" to="-E98" fromLane="3" toLane="3"/>

    <connection from="-E97" to="E98" fromLane="0" toLane="0"/>
    <connection from="-E97" to="E98" fromLane="1" toLane="1"/>
    <connection from="-E97" to="E98" fromLane="2" toLane="2"/>

    <connection from="-E98" to="E97" fromLane="0" toLane="0"/>
    <connection from="-E98" to="E97" fromLane="1" toLane="1"/>
    <connection from="-E98" to="E97" fromLane="2" toLane="2"/>
    <connection from="-E98" to="E97" fromLane="3" toLane="3"/>
    <connection from="-E98" to="E97" fromLane="3" toLane="4"/>

    <connection from="-E99" to="-E95" fromLane="0" toLane="0"/>
    <connection from="-E99" to="E21" fromLane="0" toLane="0"/>
    <connection from="-E99" to="E21" fromLane="1" toLane="1"/>
    <connection from="-E99" to="-E97" fromLane="2" toLane="2"/>

    <connection from="E0" to="-E86" fromLane="0" toLane="0"/>
    <connection from="E0" to="-E86" fromLane="1" toLane="1"/>
    <connection from="E0" to="E13" fromLane="2" toLane="0"/>
    <connection from="E0" to="E12" fromLane="4" toLane="1"/>

    <connection from="E1" to="-E3" fromLane="0" toLane="0"/>
    <connection from="E1" to="-E3" fromLane="1" toLane="1"/>
    <connection from="E1" to="-E3" fromLane="2" toLane="2"/>

    <connection from="E100" to="E101" fromLane="0" toLane="0"/>

    <connection from="E101" to="E102" fromLane="0" toLane="0"/>
    <connection from="E101" to="E102" fromLane="0" toLane="1"/>

    <connection from="E102" to="-E37" fromLane="0" toLane="0"/>
    <connection from="E102" to="-E77" fromLane="0" toLane="0"/>
    <connection from="E102" to="-E77" fromLane="1" toLane="1"/>

    <connection from="E103" to="E39" fromLane="0" toLane="0"/>
    <connection from="E103" to="-E38" fromLane="1" toLane="0"/>

    <connection from="E104" to="E103" fromLane="0" toLane="0"/>
    <connection from="E104" to="E103" fromLane="1" toLane="1"/>
    <connection from="E104" to="E103" fromLane="1" toLane="2"/>

    <connection from="E105" to="-E113" fromLane="0" toLane="0"/>
    <connection from="E105" to="-E113" fromLane="1" toLane="1"/>
    <connection from="E105" to="-E113" fromLane="1" toLane="2"/>
    <connection from="E105" to="-E7" fromLane="1" toLane="0"/>
    <connection from="E105" to="-E7" fromLane="2" toLane="1"/>
    <connection from="E105" to="-E7" fromLane="3" toLane="2"/>
    <connection from="E105" to="-E7" fromLane="4" toLane="3"/>
    <connection from="E105" to="E74" fromLane="4" toLane="2"/>

    <connection from="E107" to="E108" fromLane="0" toLane="0"/>
    <connection from="E107" to="E108" fromLane="1" toLane="1"/>
    <connection from="E107" to="E108" fromLane="2" toLane="2"/>
    <connection from="E107" to="E108" fromLane="3" toLane="3"/>
    <connection from="E107" to="E108" fromLane="3" toLane="4"/>

    <connection from="E108" to="E109" fromLane="0" toLane="0"/>
    <connection from="E108" to="E109" fromLane="1" toLane="1"/>
    <connection from="E108" to="E109" fromLane="2" toLane="2"/>
    <connection from="E108" to="E109" fromLane="3" toLane="3"/>

    <connection from="E109" to="E110" fromLane="0" toLane="0"/>
    <connection from="E109" to="E110" fromLane="1" toLane="1"/>
    <connection from="E109" to="E110" fromLane="2" toLane="2"/>
    <connection from="E109" to="E110" fromLane="3" toLane="3"/>
    <connection from="E109" to="E110" fromLane="3" toLane="4"/>

    <connection from="E11" to="E1" fromLane="0" toLane="0"/>
    <connection from="E11" to="E1" fromLane="1" toLane="1"/>
    <connection from="E11" to="E1" fromLane="2" toLane="2"/>
    <connection from="E11" to="E1" fromLane="2" toLane="3"/>

    <connection from="E110" to="E111" fromLane="0" toLane="0"/>
    <connection from="E110" to="E111" fromLane="1" toLane="1"/>
    <connection from="E110" to="E111" fromLane="2" toLane="2"/>
    <connection from="E110" to="E111" fromLane="3" toLane="3"/>
    <connection from="E110" to="E111" fromLane="4" toLane="4"/>
    <connection from="E110" to="E111" fromLane="4" toLane="5"/>

    <connection from="E111" to="E114" fromLane="0" toLane="0"/>
    <connection from="E111" to="E114" fromLane="1" toLane="1"/>
    <connection from="E111" to="E114" fromLane="2" toLane="2"/>
    <connection from="E111" to="E114" fromLane="3" toLane="3"/>
    <connection from="E111" to="E114" fromLane="4" toLane="4"/>
    <connection from="E111" to="-E23" fromLane="5" toLane="0"/>

    <connection from="E112" to="E113" fromLane="0" toLane="0"/>
    <connection from="E112" to="E113" fromLane="1" toLane="1"/>
    <connection from="E112" to="E113" fromLane="2" toLane="2"/>
    <connection from="E112" to="E113" fromLane="3" toLane="3"/>
    <connection from="E112" to="E113" fromLane="4" toLane="4"/>
    <connection from="E112" to="E113" fromLane="4" toLane="5"/>

    <connection from="E113" to="-E7" fromLane="0" toLane="0"/>
    <connection from="E113" to="E74" fromLane="1" toLane="0"/>
    <connection from="E113" to="E74" fromLane="2" toLane="1"/>
    <connection from="E113" to="E74" fromLane="3" toLane="2"/>
    <connection from="E113" to="-E105" fromLane="4" toLane="2"/>
    <connection from="E113" to="-E105" fromLane="5" toLane="3"/>

    <connection from="E114" to="E115" fromLane="0" toLane="0"/>
    <connection from="E114" to="E115" fromLane="1" toLane="1"/>
    <connection from="E114" to="E115" fromLane="2" toLane="2"/>
    <connection from="E114" to="E115" fromLane="3" toLane="3"/>

    <connection from="E115" to="E116" fromLane="0" toLane="0"/>
    <connection from="E115" to="E116" fromLane="1" toLane="1"/>
    <connection from="E115" to="E116" fromLane="2" toLane="2"/>
    <connection from="E115" to="E116" fromLane="3" toLane="3"/>
    <connection from="E115" to="E116" fromLane="3" toLane="4"/>

    <connection from="E116" to="E26" fromLane="0" toLane="0"/>
    <connection from="E116" to="-E46" fromLane="3" toLane="0"/>

    <connection from="E12" to="E85" fromLane="0" toLane="0"/>
    <connection from="E12" to="-E83" fromLane="1" toLane="0"/>

    <connection from="E13" to="E38" fromLane="0" toLane="0"/>
    <connection from="E13" to="-E69" fromLane="0" toLane="0"/>

    <connection from="E14" to="E63" fromLane="0" toLane="0"/>
    <connection from="E14" to="E63" fromLane="1" toLane="1"/>

    <connection from="E16" to="-E87" fromLane="0" toLane="0"/>
    <connection from="E16" to="-E87" fromLane="1" toLane="1"/>
    <connection from="E16" to="E76" fromLane="1" toLane="0"/>
    <connection from="E16" to="E76" fromLane="2" toLane="1"/>
    <connection from="E16" to="-E90" fromLane="2" toLane="2"/>

    <connection from="E2" to="-E9" fromLane="0" toLane="0"/>
    <connection from="E2" to="E80" fromLane="0" toLane="0"/>

    <connection from="E21" to="E22" fromLane="0" toLane="0"/>

    <connection from="E22" to="E23" fromLane="0" toLane="0"/>
    <connection from="E22" to="E34" fromLane="0" toLane="0"/>

    <connection from="E23" to="-E111" fromLane="0" toLane="0"/>
    <connection from="E23" to="-E111" fromLane="0" toLane="1"/>
    <connection from="E23" to="-E111" fromLane="0" toLane="2"/>
    <connection from="E23" to="E114" fromLane="0" toLane="1"/>
    <connection from="E23" to="E114" fromLane="0" toLane="2"/>
    <connection from="E23" to="E114" fromLane="0" toLane="3"/>
    <connection from="E23" to="E114" fromLane="0" toLane="4"/>

    <connection from="E26" to="E64" fromLane="0" toLane="0"/>
    <connection from="E26" to="E27" fromLane="0" toLane="0"/>
    <connection from="E26" to="E28" fromLane="0" toLane="0"/>

    <connection from="E27"/>

    <connection from="E28" to="E65" fromLane="0" toLane="0"/>
    <connection from="E28" to="E29" fromLane="0" toLane="0"/>

    <connection from="E29" to="-E44" fromLane="0" toLane="0"/>
    <connection from="E29" to="E30" fromLane="0" toLane="0"/>

    <connection from="E3" to="-E1" fromLane="0" toLane="0"/>
    <connection from="E3" to="-E1" fromLane="1" toLane="1"/>
    <connection from="E3" to="-E1" fromLane="2" toLane="2"/>
    <connection from="E3" to="-E1" fromLane="2" toLane="3"/>

    <connection from="E30" to="E54" fromLane="0" toLane="0"/>
    <connection from="E30" to="E31" fromLane="0" toLane="0"/>
    <connection from="E30" to="E46" fromLane="0" toLane="0"/>

    <connection from="E31" to="E50" fromLane="0" toLane="0"/>
    <connection from="E31" to="E32" fromLane="0" toLane="0"/>

    <connection from="E32" to="E35" fromLane="0" toLane="0"/>
    <connection from="E32" to="-E96" fromLane="0" toLane="0"/>
    <connection from="E32" to="-E96" fromLane="0" toLane="1"/>
    <connection from="E32" to="-E96" fromLane="0" toLane="2"/>
    <connection from="E32" to="-E96" fromLane="0" toLane="3"/>
    <connection from="E32" to="-E34" fromLane="0" toLane="0"/>

    <connection from="E34" to="-E32" fromLane="0" toLane="0"/>
    <connection from="E34" to="E35" fromLane="0" toLane="1"/>
    <connection from="E34" to="-E96" fromLane="0" toLane="3"/>

    <connection from="E35" to="E104" fromLane="0" toLane="0"/>
    <connection from="E35" to="E104" fromLane="1" toLane="1"/>
    <connection from="E35" to="E37" fromLane="2" toLane="1"/>

    <connection from="E37" to="-E77" fromLane="0" toLane="0"/>
    <connection from="E37" to="-E77" fromLane="1" toLane="1"/>
    <connection from="E37" to="-E102" fromLane="1" toLane="0"/>

    <connection from="E38" to="-E103" fromLane="0" toLane="0"/>
    <connection from="E38" to="E39" fromLane="0" toLane="0"/>

    <connection from="E39" to="-E51" fromLane="0" toLane="0"/>
    <connection from="E39" to="E40" fromLane="0" toLane="0"/>

    <connection from="E40" to="-E49" fromLane="0" toLane="0"/>
    <connection from="E40" to="E41" fromLane="0" toLane="0"/>

    <connection from="E41" to="-E56" fromLane="0" toLane="0"/>
    <connection from="E41" to="E42" fromLane="0" toLane="0"/>

    <connection from="E42" to="E44" fromLane="0" toLane="0"/>
    <connection from="E42" to="E43" fromLane="0" toLane="0"/>

    <connection from="E43" to="-E65" fromLane="0" toLane="0"/>

    <connection from="E44" to="E30" fromLane="0" toLane="0"/>
    <connection from="E44" to="-E29" fromLane="0" toLane="0"/>
