<?xml version="1.0" encoding="UTF-8"?>

<!-- generated on 2023-12-21 01:18:12 by Eclipse SUMO netedit Version 1.19.0
-->

<routes xmlns:xsi="http://www.w3.org/2001/XMLSchema-instance" xsi:noNamespaceSchemaLocation="http://sumo.dlr.de/xsd/routes_file.xsd">
    <!-- VTypes -->
    <vType id="CE-VEH" maxSpeed="22.22" vClass="truck" color="white"/>
    <vType id="T-CDA" maxSpeed="11.11" color="blue"/>
    <vType id="E-CDA" maxSpeed="15.00" color="yellow" laneChangeModel="KETI2023" carFollowModel="IDM" accel="2.60" tau="1.00"/>
    <!-- Routes -->
    <route id="route0" edges="E3 E2 E1" color="yellow"/>
    <!-- Vehicles, persons and containers (sorted by depart) -->
    <vehicle id="t-cda" type="T-CDA" depart="0.00" departLane="0" route="route0"/>
    <vehicle id="e-cda" type="E-CDA" depart="0.00" departLane="1" route="route0"/>
    <vehicle id="ce-veh" type="CE-VEH" depart="6.00" departLane="1" route="route0"/>
</routes>
