<?xml version="1.0" encoding="UTF-8"?>

<!-- generated on 2023-12-21 01:18:12 by Eclipse SUMO netedit Version 1.19.0
<configuration xmlns:xsi="http://www.w3.org/2001/XMLSchema-instance" xsi:noNamespaceSchemaLocation="http://sumo.dlr.de/xsd/neteditConfiguration.xsd">

    <input>
        <route-files value="/Users/parksik/Git/sumo/trunk/Road2Lanes_A_1_1.rou.xml"/>
        <sumo-net-file value="/Users/parksik/Git/sumo/trunk/Road2Lanes_A_1_1.net.xml"/>
    </input>

    <output>
        <output-file value="/Users/parksik/Git/sumo/trunk/Road2Lanes_A_1_1.net.xml"/>
    </output>

    <processing>
        <geometry.min-radius.fix.railways value="false"/>
        <geometry.max-grade.fix value="false"/>
        <offset.disable-normalization value="true"/>
        <lefthand value="0"/>
    </processing>

    <junctions>
        <no-internal-links value="true"/>
        <no-turnarounds value="true"/>
        <junctions.corner-detail value="5"/>
        <junctions.limit-turn-speed value="5.50"/>
        <rectangular-lane-cut value="0"/>
    </junctions>

    <pedestrian>
        <walkingareas value="0"/>
    </pedestrian>

</configuration>
-->

<net version="1.16" junctionCornerDetail="5" limitTurnSpeed="5.50" xmlns:xsi="http://www.w3.org/2001/XMLSchema-instance" xsi:noNamespaceSchemaLocation="http://sumo.dlr.de/xsd/net_file.xsd">

    <location netOffset="0.00,0.00" convBoundary="-600.00,100.00,600.00,100.00" origBoundary="-10000000000.00,-10000000000.00,10000000000.00,10000000000.00" projParameter="!"/>

    <edge id="E1" from="J2" to="J1" priority="-1">
        <lane id="E1_0" index="0" speed="27.78" length="100.00" shape="-500.00,104.80 -600.00,104.80"/>
        <lane id="E1_1" index="1" speed="27.78" length="100.00" shape="-500.00,101.60 -600.00,101.60"/>
    </edge>
    <edge id="E2" from="J3" to="J2" priority="-1">
        <lane id="E2_0" index="0" speed="27.78" length="1000.00" shape="500.00,104.80 -500.00,104.80"/>
        <lane id="E2_1" index="1" speed="27.78" length="1000.00" shape="500.00,101.60 -500.00,101.60"/>
    </edge>
    <edge id="E3" from="J4" to="J3" priority="-1">
        <lane id="E3_0" index="0" speed="27.78" length="100.00" shape="600.00,104.80 500.00,104.80"/>
        <lane id="E3_1" index="1" speed="27.78" length="100.00" shape="600.00,101.60 500.00,101.60"/>
    </edge>
    <edge id="E4" from="J1" to="J2" priority="-1">
        <lane id="E4_0" index="0" speed="27.78" length="100.00" shape="-600.00,95.20 -500.00,95.20"/>
        <lane id="E4_1" index="1" speed="27.78" length="100.00" shape="-600.00,98.40 -500.00,98.40"/>
    </edge>
    <edge id="E5" from="J2" to="J3" priority="-1">
        <lane id="E5_0" index="0" speed="27.78" length="1000.00" shape="-500.00,95.20 500.00,95.20"/>
        <lane id="E5_1" index="1" speed="27.78" length="1000.00" shape="-500.00,98.40 500.00,98.40"/>
    </edge>
    <edge id="E6" from="J3" to="J4" priority="-1">
        <lane id="E6_0" index="0" speed="27.78" length="100.00" shape="500.00,95.20 600.00,95.20"/>
        <lane id="E6_1" index="1" speed="27.78" length="100.00" shape="500.00,98.40 600.00,98.40"/>
    </edge>

    <junction id="J1" type="dead_end" x="-600.00" y="100.00" incLanes="E1_0 E1_1" intLanes="" shape="-600.00,100.00 -600.00,106.40 -600.00,100.00"/>
    <junction id="J2" type="priority" x="-500.00" y="100.00" incLanes="E2_0 E2_1 E4_0 E4_1" intLanes="" shape="-500.00,106.40 -500.00,93.60 -500.00,106.40">
        <request index="0" response="0000" foes="0000"/>
        <request index="1" response="0000" foes="0000"/>
        <request index="2" response="0000" foes="0000"/>
        <request index="3" response="0000" foes="0000"/>
    </junction>
    <junction id="J3" type="priority" x="500.00" y="100.00" incLanes="E3_0 E3_1 E5_0 E5_1" intLanes="" shape="500.00,106.40 500.00,93.60 500.00,106.40">
        <request index="0" response="0000" foes="0000"/>
        <request index="1" response="0000" foes="0000"/>
        <request index="2" response="0000" foes="0000"/>
        <request index="3" response="0000" foes="0000"/>
    </junction>
    <junction id="J4" type="dead_end" x="600.00" y="100.00" incLanes="E6_0 E6_1" intLanes="" shape="600.00,100.00 600.00,93.60 600.00,100.00"/>

    <connection from="E2" to="E1" fromLane="0" toLane="0" dir="s" state="M"/>
    <connection from="E2" to="E1" fromLane="1" toLane="1" dir="s" state="M"/>
    <connection from="E3" to="E2" fromLane="0" toLane="0" dir="s" state="M"/>
    <connection from="E3" to="E2" fromLane="1" toLane="1" dir="s" state="M"/>
    <connection from="E4" to="E5" fromLane="0" toLane="0" dir="s" state="M"/>
    <connection from="E4" to="E5" fromLane="1" toLane="1" dir="s" state="M"/>
    <connection from="E5" to="E6" fromLane="0" toLane="0" dir="s" state="M"/>
    <connection from="E5" to="E6" fromLane="1" toLane="1" dir="s" state="M"/>

</net>
