<?xml version="1.0" encoding="UTF-8"?>

<!-- generated on 2022-07-19 23:21:46 by Eclipse SUMO netedit Version 1.14.0
-->

<additional xmlns:xsi="http://www.w3.org/2001/XMLSchema-instance" xsi:noNamespaceSchemaLocation="http://sumo.dlr.de/xsd/additional_file.xsd">
    <!-- StoppingPlaces -->
    <busStop id="bs_0a" lane="E0_0" startPos="44.50" endPos="54.50"/>
    <busStop id="bs_0d" lane="-E0_0" startPos="30.71" endPos="40.71"/>
    <busStop id="bs_1a" lane="E1_0" startPos="45.37" endPos="55.37"/>
    <busStop id="bs_1d" lane="-E1_0" startPos="32.23" endPos="42.23"/>
    <busStop id="bs_2a" lane="E2_0" startPos="46.17" endPos="56.17"/>
    <busStop id="bs_2d" lane="-E2_0" startPos="28.48" endPos="38.48"/>
    <busStop id="bs_3a" lane="E3_0" startPos="41.61" endPos="51.61"/>
    <busStop id="bs_3d" lane="-E3_0" startPos="34.56" endPos="44.56"/>
</additional>
