<?xml version="1.0" encoding="UTF-8"?>

<!-- generated on 2022-07-20 23:22:39 by Eclipse SUMO netedit Version 1.14.0
<configuration xmlns:xsi="http://www.w3.org/2001/XMLSchema-instance" xsi:noNamespaceSchemaLocation="http://sumo.dlr.de/xsd/netconvertConfiguration.xsd">

    <input>
        <sumo-net-file value="/home/parksik/git/sumo/trunk/Roundabout2.net.xml"/>
    </input>

    <output>
        <output-file value="/home/parksik/git/sumo/trunk/Roundabout2.net.xml"/>
    </output>

    <processing>
        <geometry.min-radius.fix.railways value="false"/>
        <geometry.max-grade.fix value="false"/>
        <offset.disable-normalization value="true"/>
        <lefthand value="false"/>
    </processing>

    <junctions>
        <no-turnarounds value="true"/>
        <junctions.corner-detail value="5"/>
        <junctions.limit-turn-speed value="5.5"/>
        <rectangular-lane-cut value="false"/>
    </junctions>

    <pedestrian>
        <walkingareas value="false"/>
    </pedestrian>

</configuration>
-->

<net version="1.9" junctionCornerDetail="5" limitTurnSpeed="5.50" xmlns:xsi="http://www.w3.org/2001/XMLSchema-instance" xsi:noNamespaceSchemaLocation="http://sumo.dlr.de/xsd/net_file.xsd">

    <location netOffset="0.00,0.00" convBoundary="-21.83,-36.13,250.31,232.38" origBoundary="-10000000000.00,-10000000000.00,10000000000.00,10000000000.00" projParameter="!"/>

    <edge id=":J0_0" function="internal">
        <lane id=":J0_0_0" index="0" disallow="pedestrian" speed="7.23" length="7.14" shape="13.51,104.80 11.54,105.00 9.89,105.60 8.56,106.61 7.55,108.02"/>
    </edge>
    <edge id=":J0_1" function="internal">
        <lane id=":J0_1_0" index="0" disallow="pedestrian" speed="6.65" length="6.65" shape="8.33,91.73 9.19,93.25 10.34,94.33 11.78,94.98 13.51,95.20"/>
        <lane id=":J0_1_1" index="1" disallow="pedestrian" speed="7.54" length="8.77" shape="8.33,91.73 9.68,94.65 11.00,96.73 12.27,97.98 13.51,98.40"/>
    </edge>
    <edge id=":J0_3" function="internal">
        <lane id=":J0_3_0" index="0" speed="12.43" length="16.85" shape="8.33,91.73 9.57,95.88 9.85,99.98 9.18,104.02 7.55,108.02"/>
    </edge>
    <edge id=":J1_0" function="internal">
        <lane id=":J1_0_0" index="0" disallow="pedestrian" speed="6.63" length="6.82" shape="114.80,196.23 115.03,198.01 115.71,199.48 116.84,200.63 118.42,201.47"/>
    </edge>
    <edge id=":J1_1" function="internal">
        <lane id=":J1_1_0" index="0" disallow="pedestrian" speed="6.97" length="7.11" shape="101.74,201.96 103.25,201.02 104.33,199.75 104.98,198.16 105.20,196.23"/>
        <lane id=":J1_1_1" index="1" disallow="pedestrian" speed="7.82" length="9.14" shape="101.74,201.96 104.65,200.48 106.73,199.03 107.98,197.62 108.40,196.23"/>
    </edge>
    <edge id=":J1_3" function="internal">
        <lane id=":J1_3_0" index="0" speed="13.55" length="17.01" shape="101.74,201.96 105.61,200.77 110.03,200.29 114.48,200.51 118.42,201.47"/>
    </edge>
    <edge id=":J10_0" function="internal">
        <lane id=":J10_0_0" index="0" disallow="pedestrian" speed="8.36" length="8.53" shape="90.16,109.72 88.50,107.57 86.85,106.03 85.21,105.11 83.57,104.80"/>
        <lane id=":J10_0_1" index="1" disallow="pedestrian" speed="9.23" length="10.53" shape="90.16,109.72 87.70,106.17 85.78,103.63 84.40,102.11 83.57,101.60"/>
    </edge>
    <edge id=":J10_2" function="internal">
        <lane id=":J10_2_0" index="0" disallow="pedestrian" speed="11.16" length="21.01" shape="90.16,109.72 87.41,104.48 86.38,99.47 87.06,94.69 89.45,90.13"/>
    </edge>
    <edge id=":J10_3" function="internal">
        <lane id=":J10_3_0" index="0" disallow="pedestrian" speed="8.30" length="7.95" shape="83.57,95.20 84.75,94.88 86.13,93.93 87.69,92.35 89.45,90.13"/>
    </edge>
    <edge id=":J11_0" function="internal">
        <lane id=":J11_0_0" index="0" disallow="pedestrian" speed="6.55" length="7.81" shape="105.20,125.28 104.92,123.21 104.07,121.61 102.66,120.46 100.69,119.79"/>
    </edge>
    <edge id=":J11_1" function="internal">
        <lane id=":J11_1_0" index="0" disallow="pedestrian" speed="6.55" length="7.80" shape="119.31,119.79 117.34,120.47 115.93,121.61 115.08,123.21 114.80,125.28"/>
        <lane id=":J11_1_1" index="1" disallow="pedestrian" speed="7.40" length="10.19" shape="119.31,119.79 115.94,120.70 113.53,121.92 112.08,123.45 111.60,125.28"/>
    </edge>
    <edge id=":J11_3" function="internal">
        <lane id=":J11_3_0" index="0" disallow="pedestrian" speed="13.89" length="18.70" shape="119.31,119.79 115.02,120.33 110.00,120.52 104.98,120.33 100.69,119.79"/>
    </edge>
    <edge id=":J12_0" function="internal">
        <lane id=":J12_0_0" index="0" disallow="pedestrian" speed="6.51" length="8.86" shape="137.02,101.60 134.62,101.94 132.89,102.96 131.82,104.67 131.42,107.06"/>
    </edge>
    <edge id=":J12_1" function="internal">
        <lane id=":J12_1_0" index="0" disallow="pedestrian" speed="6.95" length="9.18" shape="130.53,93.20 131.25,95.48 132.57,97.10 134.49,98.08 137.02,98.40"/>
    </edge>
    <edge id=":J12_2" function="internal">
        <lane id=":J12_2_0" index="0" disallow="pedestrian" speed="13.89" length="13.90" shape="130.53,93.20 131.02,96.75 131.32,100.11 131.45,103.48 131.42,107.06"/>
    </edge>
    <edge id=":J13_0" function="internal">
        <lane id=":J13_0_0" index="0" disallow="pedestrian" speed="6.97" length="8.70" shape="114.80,74.08 115.09,76.50 115.97,78.39 117.43,79.73 119.47,80.54"/>
    </edge>
    <edge id=":J13_1" function="internal">
        <lane id=":J13_1_0" index="0" disallow="pedestrian" speed="6.53" length="8.22" shape="100.31,79.63 102.45,79.05 103.98,77.93 104.89,76.27 105.20,74.08"/>
        <lane id=":J13_1_1" index="1" disallow="pedestrian" speed="7.37" length="10.71" shape="100.31,79.63 103.85,78.90 106.38,77.72 107.89,76.12 108.40,74.08"/>
    </edge>
    <edge id=":J13_3" function="internal">
        <lane id=":J13_3_0" index="0" disallow="pedestrian" speed="13.89" length="19.24" shape="100.31,79.63 104.71,79.35 109.92,79.43 115.12,79.84 119.47,80.54"/>
    </edge>
    <edge id=":J14_0" function="internal">
        <lane id=":J14_0_0" index="0" speed="4.36" length="1.09" shape="-10.77,114.85 -11.10,114.86 -11.32,114.83 -11.52,114.73 -11.79,114.55"/>
    </edge>
    <edge id=":J15_0" function="internal">
        <lane id=":J15_0_0" index="0" speed="13.89" length="0.94" shape="-10.65,83.71 -10.42,83.56 -10.25,83.48 -10.06,83.45 -9.78,83.44"/>
    </edge>
    <edge id=":J16_0" function="internal">
        <lane id=":J16_0_0" index="0" speed="13.89" length="8.81" shape="146.00,104.80 143.54,104.30 142.00,103.20 140.46,102.10 138.00,101.60"/>
    </edge>
    <edge id=":J16_1" function="internal">
        <lane id=":J16_1_0" index="0" speed="13.89" length="8.40" shape="138.00,98.40 140.46,97.90 142.00,96.80 143.54,95.70 146.00,95.20"/>
        <lane id=":J16_1_1" index="1" speed="13.89" length="8.40" shape="138.00,98.40 146.00,98.40"/>
    </edge>
    <edge id=":J2_0" function="internal">
        <lane id=":J2_0_0" index="0" speed="6.70" length="6.19" shape="212.19,107.87 211.30,106.53 210.17,105.57 208.80,104.99 207.20,104.80"/>
        <lane id=":J2_0_1" index="1" speed="7.63" length="8.22" shape="212.19,107.87 210.69,105.13 209.36,103.17 208.19,101.99 207.20,101.60"/>
    </edge>
    <edge id=":J2_2" function="internal">
        <lane id=":J2_2_0" index="0" speed="11.60" length="16.33" shape="212.19,107.87 210.70,103.93 210.22,100.00 210.76,96.08 212.31,92.17"/>
    </edge>
    <edge id=":J2_3" function="internal">
        <lane id=":J2_3_0" index="0" speed="6.79" length="6.27" shape="207.20,95.20 208.83,95.01 210.23,94.44 211.39,93.49 212.31,92.17"/>
    </edge>
    <edge id=":J3_0" function="internal">
        <lane id=":J3_0_0" index="0" disallow="pedestrian" speed="6.94" length="6.60" shape="105.20,3.11 105.00,1.35 104.42,-0.14 103.44,-1.36 102.07,-2.31"/>
    </edge>
    <edge id=":J3_1" function="internal">
        <lane id=":J3_1_0" index="0" disallow="pedestrian" speed="6.68" length="6.39" shape="118.04,-1.97 116.62,-1.09 115.61,0.05 115.00,1.45 114.80,3.11"/>
        <lane id=":J3_1_1" index="1" disallow="pedestrian" speed="7.59" length="8.46" shape="118.04,-1.97 115.22,-0.53 113.21,0.80 112.00,2.01 111.60,3.11"/>
    </edge>
    <edge id=":J3_3" function="internal">
        <lane id=":J3_3_0" index="0" speed="12.01" length="16.56" shape="118.04,-1.97 114.01,-0.58 110.01,-0.18 106.03,-0.75 102.07,-2.31"/>
    </edge>
    <edge id=":J4_0" function="internal">
        <lane id=":J4_0_0" index="0" speed="4.36" length="1.09" shape="93.37,-26.72 93.41,-27.03 93.48,-27.25 93.61,-27.44 93.83,-27.67"/>
    </edge>
    <edge id=":J5_0" function="internal">
        <lane id=":J5_0_0" index="0" speed="4.31" length="1.16" shape="126.30,-30.70 126.57,-30.51 126.74,-30.33 126.85,-30.12 126.95,-29.80"/>
    </edge>
    <edge id=":J6_0" function="internal">
        <lane id=":J6_0_0" index="0" speed="4.29" length="1.17" shape="237.43,80.80 237.77,80.80 238.01,80.84 238.23,80.95 238.50,81.16"/>
    </edge>
    <edge id=":J7_0" function="internal">
        <lane id=":J7_0_0" index="0" speed="4.38" length="1.07" shape="237.93,117.57 237.67,117.74 237.46,117.84 237.25,117.87 236.93,117.86"/>
    </edge>
    <edge id=":J8_0" function="internal">
        <lane id=":J8_0_0" index="0" speed="4.32" length="1.14" shape="127.67,221.64 127.66,221.98 127.61,222.21 127.49,222.41 127.28,222.67"/>
    </edge>
    <edge id=":J9_0" function="internal">
        <lane id=":J9_0_0" index="0" speed="13.89" length="0.98" shape="94.12,222.63 93.94,222.40 93.85,222.22 93.80,222.03 93.77,221.74"/>
    </edge>

    <edge id="-E0" from="J0" to="J10" priority="-1">
        <lane id="-E0_0" index="0" disallow="pedestrian" speed="13.89" length="70.06" shape="13.51,95.20 83.57,95.20"/>
        <lane id="-E0_1" index="1" disallow="pedestrian" speed="13.89" length="70.06" shape="13.51,98.40 83.57,98.40"/>
    </edge>
    <edge id="-E1" from="J1" to="J11" priority="-1">
        <lane id="-E1_0" index="0" disallow="pedestrian" speed="13.89" length="70.95" shape="105.20,196.23 105.20,125.28"/>
        <lane id="-E1_1" index="1" disallow="pedestrian" speed="13.89" length="70.95" shape="108.40,196.23 108.40,125.28"/>
    </edge>
    <edge id="-E2" from="J2" to="J16" priority="-1">
        <lane id="-E2_0" index="0" speed="13.89" length="61.20" shape="207.20,104.80 146.00,104.80"/>
        <lane id="-E2_1" index="1" speed="13.89" length="61.20" shape="207.20,101.60 146.00,101.60"/>
    </edge>
    <edge id="-E20" from="J16" to="J12" priority="-1">
        <lane id="-E20_0" index="0" speed="13.89" length="0.98" shape="138.00,101.60 137.02,101.60"/>
    </edge>
    <edge id="-E3" from="J3" to="J13" priority="-1">
        <lane id="-E3_0" index="0" disallow="pedestrian" speed="13.89" length="70.97" shape="114.80,3.11 114.80,74.08"/>
        <lane id="-E3_1" index="1" disallow="pedestrian" speed="13.89" length="70.97" shape="111.60,3.11 111.60,74.08"/>
    </edge>
    <edge id="E0" from="J10" to="J0" priority="-1">
        <lane id="E0_0" index="0" disallow="pedestrian" speed="13.89" length="70.06" shape="83.57,104.80 13.51,104.80"/>
        <lane id="E0_1" index="1" disallow="pedestrian" speed="13.89" length="70.06" shape="83.57,101.60 13.51,101.60"/>
    </edge>
    <edge id="E1" from="J11" to="J1" priority="-1">
        <lane id="E1_0" index="0" disallow="pedestrian" speed="13.89" length="70.95" shape="114.80,125.28 114.80,196.23"/>
        <lane id="E1_1" index="1" disallow="pedestrian" speed="13.89" length="70.95" shape="111.60,125.28 111.60,196.23"/>
    </edge>
    <edge id="E10" from="J12" to="J11" priority="-1" shape="130.00,100.00 129.77,108.88 125.43,114.49 119.35,118.15 110.00,120.00">
        <lane id="E10_0" index="0" disallow="pedestrian" speed="13.89" length="18.62" shape="131.42,107.06 131.36,109.44 126.51,115.71 119.94,119.67 119.31,119.79"/>
    </edge>
    <edge id="E11" from="J11" to="J10" priority="-1" shape="110.00,120.00 100.06,118.03 94.97,114.00 91.34,108.61 90.00,100.00">
        <lane id="E11_0" index="0" disallow="pedestrian" speed="13.89" length="14.96" shape="100.69,119.79 99.37,119.52 93.78,115.10 90.16,109.72"/>
    </edge>
    <edge id="E12" from="J10" to="J13" priority="-1" shape="90.00,100.00 90.67,91.17 94.70,85.65 100.36,81.24 110.00,80.00">
        <lane id="E12_0" index="0" disallow="pedestrian" speed="13.89" length="15.38" shape="89.45,90.13 93.54,84.53 99.72,79.71 100.31,79.63"/>
    </edge>
    <edge id="E13" from="J13" to="J12" priority="-1" shape="110.00,80.00 119.84,82.27 124.91,86.40 128.67,91.71 130.00,100.00">
        <lane id="E13_0" index="0" disallow="pedestrian" speed="13.89" length="17.49" shape="119.47,80.54 120.56,80.79 126.09,85.30 130.19,91.09 130.53,93.20"/>
    </edge>
    <edge id="E14" from="J1" to="J8" priority="-1" shape="110.00,200.00 120.93,204.13 126.16,211.25 126.07,221.63">
        <lane id="E14_0" index="0" speed="13.89" length="24.51" shape="118.42,201.47 121.94,202.80 127.76,210.73 127.67,221.64"/>
    </edge>
    <edge id="E15" from="J8" to="J9" priority="-1" shape="126.07,221.63 118.86,230.00 110.94,232.38 102.18,230.14 95.37,221.63">
        <lane id="E15_0" index="0" speed="13.89" length="42.15" shape="127.28,222.67 119.77,231.40 110.97,234.04 101.27,231.56 94.12,222.63"/>
    </edge>
    <edge id="E16" from="J9" to="J1" priority="-1" shape="95.37,221.63 94.68,211.30 100.51,204.27 110.00,200.00">
        <lane id="E16_0" index="0" speed="13.89" length="23.57" shape="93.77,221.74 93.04,210.77 99.52,202.96 101.74,201.96"/>
    </edge>
    <edge id="E17" from="J0" to="J14" priority="-1" shape="10.00,100.00 5.69,108.10 -0.73,112.71 -10.86,113.25">
        <lane id="E17_0" index="0" speed="13.89" length="20.68" shape="7.55,108.02 6.93,109.18 -0.18,114.28 -10.77,114.85"/>
    </edge>
    <edge id="E18" from="J14" to="J15" priority="-1" shape="-10.86,113.25 -19.55,107.05 -21.83,98.83 -18.53,90.85 -9.77,85.04">
        <lane id="E18_0" index="0" speed="13.89" length="41.56" shape="-11.79,114.55 -20.94,108.02 -23.52,98.73 -19.82,89.79 -10.65,83.71"/>
    </edge>
    <edge id="E19" from="J15" to="J0" priority="-1" shape="-9.77,85.04 -0.40,84.97 5.87,89.95 10.00,100.00">
        <lane id="E19_0" index="0" speed="13.89" length="21.92" shape="-9.78,83.44 0.15,83.37 7.19,88.96 8.33,91.73"/>
    </edge>
    <edge id="E2" from="J16" to="J2" priority="-1">
        <lane id="E2_0" index="0" speed="13.89" length="61.20" shape="146.00,95.20 207.20,95.20"/>
        <lane id="E2_1" index="1" speed="13.89" length="61.20" shape="146.00,98.40 207.20,98.40"/>
    </edge>
    <edge id="E20" from="J12" to="J16" priority="-1">
        <lane id="E20_0" index="0" speed="13.89" length="0.98" shape="137.02,98.40 138.00,98.40"/>
    </edge>
    <edge id="E3" from="J13" to="J3" priority="-1">
        <lane id="E3_0" index="0" disallow="pedestrian" speed="13.89" length="70.97" shape="105.20,74.08 105.20,3.11"/>
        <lane id="E3_1" index="1" disallow="pedestrian" speed="13.89" length="70.97" shape="108.40,74.08 108.40,3.11"/>
    </edge>
    <edge id="E4" from="J3" to="J4" priority="-1" shape="110.00,0.00 101.42,-4.45 96.72,-9.55 93.94,-17.30 94.96,-26.54">
        <lane id="E4_0" index="0" speed="13.89" length="27.98" shape="102.07,-2.31 100.43,-3.16 95.32,-8.70 92.31,-17.11 93.37,-26.72"/>
    </edge>
    <edge id="E5" from="J4" to="J5" priority="-1" shape="94.96,-26.54 101.61,-33.21 108.42,-36.13 116.44,-35.47 125.40,-29.38">
        <lane id="E5_0" index="0" speed="13.89" length="37.97" shape="93.83,-27.67 100.70,-34.56 108.15,-37.76 116.99,-37.03 126.30,-30.70"/>
    </edge>
    <edge id="E6" from="J5" to="J3" priority="-1" shape="125.40,-29.38 128.12,-19.27 126.38,-11.08 120.53,-4.89 110.00,0.00">
        <lane id="E6_0" index="0" speed="13.89" length="33.13" shape="126.95,-29.80 129.77,-19.31 127.85,-10.31 121.48,-3.57 118.04,-1.97"/>
    </edge>
    <edge id="E7" from="J2" to="J6" priority="-1" shape="210.00,100.00 215.42,89.68 223.46,82.96 237.49,82.40">
        <lane id="E7_0" index="0" speed="13.89" length="29.89" shape="212.31,92.17 214.15,88.66 222.85,81.38 237.43,80.80"/>
    </edge>
    <edge id="E8" from="J6" to="J7" priority="-1" shape="237.49,82.40 247.09,90.19 250.31,99.54 247.87,108.65 237.01,116.26">
        <lane id="E8_0" index="0" speed="13.89" length="48.00" shape="238.50,81.16 248.45,89.24 251.98,99.48 249.26,109.63 237.93,117.57"/>
    </edge>
    <edge id="E9" from="J7" to="J2" priority="-1" shape="237.01,116.26 224.46,115.64 215.55,110.96 210.00,100.00">
        <lane id="E9_0" index="0" speed="13.89" length="28.63" shape="236.93,117.86 224.03,117.22 214.35,112.14 212.19,107.87"/>
    </edge>

    <junction id="J0" type="priority" x="10.00" y="100.00" incLanes="E0_0 E0_1 E19_0" intLanes=":J0_0_0 :J0_1_0 :J0_1_1 :J0_3_0" shape="13.51,106.40 13.51,93.60 11.91,93.32 11.25,92.98 10.67,92.50 10.20,91.88 9.81,91.12 6.85,92.34 7.71,94.88 8.17,97.40 8.25,99.90 7.93,102.38 7.23,104.83 6.14,107.26 8.96,108.77 10.03,107.45 10.73,106.99 11.54,106.66 12.47,106.47" name="West">
        <request index="0" response="0000" foes="1000" cont="0"/>
        <request index="1" response="0000" foes="0000" cont="0"/>
        <request index="2" response="0000" foes="0000" cont="0"/>
        <request index="3" response="0001" foes="0001" cont="0"/>
    </junction>
    <junction id="J1" type="priority" x="110.00" y="200.00" incLanes="E1_0 E1_1 E16_0" intLanes=":J1_0_0 :J1_1_0 :J1_1_1 :J1_3_0" shape="117.86,202.97 118.99,199.97 117.55,199.12 117.05,198.55 116.69,197.88 116.47,197.10 116.40,196.23 103.60,196.23 103.32,198.10 102.97,198.87 102.48,199.53 101.85,200.07 101.08,200.51 102.39,203.42 105.48,202.10 107.93,201.29 110.06,200.98 112.20,201.17 114.69,201.83" name=" North">
        <request index="0" response="0000" foes="1000" cont="0"/>
        <request index="1" response="0000" foes="0000" cont="0"/>
        <request index="2" response="0000" foes="0000" cont="0"/>
        <request index="3" response="0001" foes="0001" cont="0"/>
    </junction>
    <junction id="J10" type="priority" x="90.00" y="100.00" incLanes="E11_0 -E0_0 -E0_1" intLanes=":J10_0_0 :J10_0_1 :J10_2_0 :J10_3_0" shape="88.43,110.02 91.88,109.42 89.93,106.01 88.72,102.69 88.24,99.47 88.51,96.34 89.52,93.29 91.28,90.34 87.62,89.92 85.97,91.97 85.26,92.68 84.63,93.19 84.06,93.50 83.57,93.60 83.57,106.40 85.19,106.80 86.00,107.31 86.81,108.01 87.62,108.92" name="Roundabout_west">
        <request index="0" response="0000" foes="0000" cont="0"/>
        <request index="1" response="0000" foes="0000" cont="0"/>
        <request index="2" response="0000" foes="1000" cont="0"/>
        <request index="3" response="0100" foes="0100" cont="0"/>
    </junction>
    <junction id="J11" type="priority" x="110.00" y="120.00" incLanes="-E1_0 -E1_1 E10_0" intLanes=":J11_0_0 :J11_1_0 :J11_1_1 :J11_3_0" shape="103.60,125.28 116.40,125.28 116.76,123.39 117.21,122.66 117.83,122.08 118.64,121.64 119.62,121.36 119.00,118.22 115.22,118.95 112.37,119.38 110.00,119.53 107.63,119.38 104.79,118.95 101.00,118.22 100.38,121.35 102.17,122.08 102.79,122.66 103.24,123.38 103.51,124.26" name="Roundabout_north">
        <request index="0" response="1000" foes="1000" cont="0"/>
        <request index="1" response="0000" foes="0000" cont="0"/>
        <request index="2" response="0000" foes="0000" cont="0"/>
        <request index="3" response="0000" foes="0001" cont="0"/>
    </junction>
    <junction id="J12" type="priority" x="130.00" y="100.00" incLanes="-E20_0 E13_0" intLanes=":J12_0_0 :J12_1_0 :J12_2_0" shape="137.02,103.20 137.02,96.80 134.56,96.37 133.65,95.84 132.93,95.09 132.42,94.13 132.11,92.95 128.95,93.46 129.40,96.32 129.69,98.44 129.85,100.20 129.91,101.97 129.89,104.12 129.82,107.01 133.02,107.10 133.51,104.93 134.07,104.17 134.84,103.63 135.82,103.31" name="Roundabout_east">
        <request index="0" response="100" foes="100" cont="0"/>
        <request index="1" response="000" foes="000" cont="0"/>
        <request index="2" response="000" foes="001" cont="0"/>
    </junction>
    <junction id="J13" type="priority" x="110.00" y="80.00" incLanes="-E3_0 -E3_1 E12_0" intLanes=":J13_0_0 :J13_1_0 :J13_1_1 :J13_3_0" shape="119.11,82.10 119.83,78.98 117.92,78.09 117.26,77.36 116.78,76.45 116.50,75.36 116.40,74.08 103.60,74.08 103.21,76.08 102.73,76.83 102.05,77.41 101.18,77.81 100.11,78.05 100.52,81.22 104.47,80.73 107.43,80.46 109.87,80.43 112.31,80.68 115.22,81.23" name="Roundabout_south">
        <request index="0" response="1000" foes="1000" cont="0"/>
        <request index="1" response="0000" foes="0000" cont="0"/>
        <request index="2" response="0000" foes="0000" cont="0"/>
        <request index="3" response="0000" foes="0001" cont="0"/>
    </junction>
    <junction id="J14" type="priority" x="-10.86" y="113.25" incLanes="E17_0" intLanes=":J14_0_0" shape="-10.69,116.45 -10.86,113.25 -12.72,115.85 -12.04,116.29 -11.78,116.40 -11.49,116.45 -11.15,116.46">
        <request index="0" response="0" foes="0" cont="0"/>
    </junction>
    <junction id="J15" type="priority" x="-9.77" y="85.04" incLanes="E18_0" intLanes=":J15_0_0" shape="-9.77,85.04 -9.79,81.84 -10.48,81.87 -10.72,81.92 -10.95,82.01 -11.21,82.16 -11.54,82.37">
        <request index="0" response="0" foes="0" cont="0"/>
    </junction>
    <junction id="J16" type="priority" x="142.00" y="100.00" incLanes="-E2_0 -E2_1 E20_0" intLanes=":J16_0_0 :J16_1_0 :J16_1_1" shape="146.00,106.40 146.00,93.60 142.97,94.43 141.03,95.97 139.79,96.56 138.00,96.80 138.00,103.20 141.03,104.03 142.97,105.57 144.21,106.16">
        <request index="0" response="000" foes="000" cont="0"/>
        <request index="1" response="000" foes="000" cont="0"/>
        <request index="2" response="000" foes="000" cont="0"/>
    </junction>
    <junction id="J2" type="priority" x="210.00" y="100.00" incLanes="E9_0 E2_0 E2_1" intLanes=":J2_0_0 :J2_0_1 :J2_2_0 :J2_3_0" shape="210.76,108.59 213.62,107.15 212.62,104.77 212.02,102.39 211.84,100.01 212.06,97.64 212.69,95.28 213.72,92.91 210.89,91.42 209.97,92.63 209.39,93.06 208.74,93.36 208.01,93.54 207.20,93.60 207.20,106.40 208.68,106.64 209.32,106.95 209.87,107.37 210.36,107.92" name="East">
        <request index="0" response="0000" foes="0000" cont="0"/>
        <request index="1" response="0000" foes="0000" cont="0"/>
        <request index="2" response="1000" foes="1000" cont="0"/>
        <request index="3" response="0000" foes="0100" cont="0"/>
    </junction>
    <junction id="J3" type="priority" x="110.00" y="0.00" incLanes="E3_0 E3_1 E6_0" intLanes=":J3_0_0 :J3_1_0 :J3_1_1 :J3_3_0" shape="103.60,3.11 116.40,3.11 116.66,1.57 116.98,0.93 117.43,0.36 118.01,-0.12 118.72,-0.52 117.37,-3.42 114.92,-2.48 112.48,-1.94 110.04,-1.79 107.62,-2.04 105.21,-2.69 102.81,-3.73 101.33,-0.89 102.59,0.08 103.03,0.70 103.35,1.41 103.54,2.21" name="South">
        <request index="0" response="0000" foes="1000" cont="0"/>
        <request index="1" response="0000" foes="0000" cont="0"/>
        <request index="2" response="0000" foes="0000" cont="0"/>
        <request index="3" response="0001" foes="0001" cont="0"/>
    </junction>
    <junction id="J4" type="priority" x="94.96" y="-26.54" incLanes="E4_0" intLanes=":J4_0_0" shape="94.96,-26.54 92.69,-28.80 92.15,-28.21 92.00,-27.96 91.90,-27.69 91.84,-27.35 91.78,-26.89">
        <request index="0" response="0" foes="0" cont="0"/>
    </junction>
    <junction id="J5" type="priority" x="125.40" y="-29.38" incLanes="E5_0" intLanes=":J5_0_0" shape="125.40,-29.38 128.49,-30.21 128.23,-31.02 128.08,-31.29 127.88,-31.52 127.59,-31.75 127.20,-32.03">
        <request index="0" response="0" foes="0" cont="0"/>
    </junction>
    <junction id="J6" type="priority" x="237.49" y="82.40" incLanes="E7_0" intLanes=":J6_0_0" shape="237.49,82.40 239.51,79.92 238.81,79.40 238.53,79.28 238.22,79.21 237.85,79.19 237.36,79.20">
        <request index="0" response="0" foes="0" cont="0"/>
    </junction>
    <junction id="J7" type="priority" x="237.01" y="116.26" incLanes="E8_0" intLanes=":J7_0_0" shape="238.85,118.88 237.01,116.26 236.85,119.46 237.64,119.46 237.92,119.41 238.18,119.31 238.48,119.13">
        <request index="0" response="0" foes="0" cont="0"/>
    </junction>
    <junction id="J8" type="priority" x="126.07" y="221.63" incLanes="E14_0" intLanes=":J8_0_0" shape="129.27,221.66 126.07,221.63 128.49,223.72 129.01,223.06 129.15,222.79 129.22,222.50 129.26,222.13">
        <request index="0" response="0" foes="0" cont="0"/>
    </junction>
    <junction id="J9" type="priority" x="95.37" y="221.63" incLanes="E15_0" intLanes=":J9_0_0" shape="92.87,223.63 95.37,221.63 92.18,221.84 92.25,222.56 92.32,222.81 92.44,223.05 92.62,223.30">
        <request index="0" response="0" foes="0" cont="0"/>
    </junction>

    <connection from="-E0" to="E12" fromLane="0" toLane="0" via=":J10_3_0" dir="r" state="m" visibility="9.00"/>
    <connection from="-E1" to="E11" fromLane="0" toLane="0" via=":J11_0_0" dir="r" state="m" visibility="9.00"/>
    <connection from="-E2" to="-E20" fromLane="0" toLane="0" via=":J16_0_0" dir="s" state="M"/>
    <connection from="-E20" to="E10" fromLane="0" toLane="0" via=":J12_0_0" dir="r" state="m" visibility="9.00"/>
    <connection from="-E3" to="E13" fromLane="0" toLane="0" via=":J13_0_0" dir="r" state="m" visibility="9.00"/>
    <connection from="E0" to="E17" fromLane="0" toLane="0" via=":J0_0_0" dir="r" state="M"/>
    <connection from="E1" to="E14" fromLane="0" toLane="0" via=":J1_0_0" dir="r" state="M"/>
    <connection from="E10" to="E1" fromLane="0" toLane="0" via=":J11_1_0" dir="r" state="M"/>
    <connection from="E10" to="E1" fromLane="0" toLane="1" via=":J11_1_1" dir="r" state="M"/>
    <connection from="E10" to="E11" fromLane="0" toLane="0" via=":J11_3_0" dir="s" state="M"/>
    <connection from="E11" to="E0" fromLane="0" toLane="0" via=":J10_0_0" dir="r" state="M"/>
    <connection from="E11" to="E0" fromLane="0" toLane="1" via=":J10_0_1" dir="r" state="M"/>
    <connection from="E11" to="E12" fromLane="0" toLane="0" via=":J10_2_0" dir="s" state="M"/>
    <connection from="E12" to="E3" fromLane="0" toLane="0" via=":J13_1_0" dir="r" state="M"/>
    <connection from="E12" to="E3" fromLane="0" toLane="1" via=":J13_1_1" dir="r" state="M"/>
    <connection from="E12" to="E13" fromLane="0" toLane="0" via=":J13_3_0" dir="s" state="M"/>
    <connection from="E13" to="E20" fromLane="0" toLane="0" via=":J12_1_0" dir="r" state="M"/>
    <connection from="E13" to="E10" fromLane="0" toLane="0" via=":J12_2_0" dir="s" state="M"/>
    <connection from="E14" to="E15" fromLane="0" toLane="0" via=":J8_0_0" dir="s" state="M"/>
    <connection from="E15" to="E16" fromLane="0" toLane="0" via=":J9_0_0" dir="s" state="M"/>
    <connection from="E16" to="-E1" fromLane="0" toLane="0" via=":J1_1_0" dir="r" state="M"/>
    <connection from="E16" to="-E1" fromLane="0" toLane="1" via=":J1_1_1" dir="r" state="M"/>
    <connection from="E16" to="E14" fromLane="0" toLane="0" via=":J1_3_0" dir="l" state="m"/>
    <connection from="E17" to="E18" fromLane="0" toLane="0" via=":J14_0_0" dir="s" state="M"/>
    <connection from="E18" to="E19" fromLane="0" toLane="0" via=":J15_0_0" dir="s" state="M"/>
    <connection from="E19" to="-E0" fromLane="0" toLane="0" via=":J0_1_0" dir="r" state="M"/>
    <connection from="E19" to="-E0" fromLane="0" toLane="1" via=":J0_1_1" dir="r" state="M"/>
    <connection from="E19" to="E17" fromLane="0" toLane="0" via=":J0_3_0" dir="l" state="m"/>
    <connection from="E2" to="E7" fromLane="0" toLane="0" via=":J2_3_0" dir="r" state="M"/>
    <connection from="E20" to="E2" fromLane="0" toLane="0" via=":J16_1_0" dir="s" state="M"/>
    <connection from="E20" to="E2" fromLane="0" toLane="1" via=":J16_1_1" dir="s" state="M"/>
    <connection from="E3" to="E4" fromLane="0" toLane="0" via=":J3_0_0" dir="r" state="M"/>
    <connection from="E4" to="E5" fromLane="0" toLane="0" via=":J4_0_0" dir="s" state="M"/>
    <connection from="E5" to="E6" fromLane="0" toLane="0" via=":J5_0_0" dir="s" state="M"/>
    <connection from="E6" to="-E3" fromLane="0" toLane="0" via=":J3_1_0" dir="r" state="M"/>
    <connection from="E6" to="-E3" fromLane="0" toLane="1" via=":J3_1_1" dir="r" state="M"/>
    <connection from="E6" to="E4" fromLane="0" toLane="0" via=":J3_3_0" dir="l" state="m"/>
    <connection from="E7" to="E8" fromLane="0" toLane="0" via=":J6_0_0" dir="s" state="M"/>
    <connection from="E8" to="E9" fromLane="0" toLane="0" via=":J7_0_0" dir="s" state="M"/>
    <connection from="E9" to="-E2" fromLane="0" toLane="0" via=":J2_0_0" dir="r" state="M"/>
    <connection from="E9" to="-E2" fromLane="0" toLane="1" via=":J2_0_1" dir="r" state="M"/>
    <connection from="E9" to="E7" fromLane="0" toLane="0" via=":J2_2_0" dir="l" state="m"/>

    <connection from=":J0_0" to="E17" fromLane="0" toLane="0" dir="r" state="M"/>
    <connection from=":J0_1" to="-E0" fromLane="0" toLane="0" dir="r" state="M"/>
    <connection from=":J0_1" to="-E0" fromLane="1" toLane="1" dir="r" state="M"/>
    <connection from=":J0_3" to="E17" fromLane="0" toLane="0" dir="l" state="M"/>
    <connection from=":J1_0" to="E14" fromLane="0" toLane="0" dir="r" state="M"/>
    <connection from=":J1_1" to="-E1" fromLane="0" toLane="0" dir="r" state="M"/>
    <connection from=":J1_1" to="-E1" fromLane="1" toLane="1" dir="r" state="M"/>
    <connection from=":J1_3" to="E14" fromLane="0" toLane="0" dir="l" state="M"/>
    <connection from=":J10_0" to="E0" fromLane="0" toLane="0" dir="r" state="M"/>
    <connection from=":J10_0" to="E0" fromLane="1" toLane="1" dir="r" state="M"/>
    <connection from=":J10_2" to="E12" fromLane="0" toLane="0" dir="s" state="M"/>
    <connection from=":J10_3" to="E12" fromLane="0" toLane="0" dir="r" state="M"/>
    <connection from=":J11_0" to="E11" fromLane="0" toLane="0" dir="r" state="M"/>