<?xml version="1.0" encoding="UTF-8"?>

<!-- generated on 2023-12-20 12:32:49 by Eclipse SUMO netedit Version 1.14.0
<configuration xmlns:xsi="http://www.w3.org/2001/XMLSchema-instance" xsi:noNamespaceSchemaLocation="http://sumo.dlr.de/xsd/netconvertConfiguration.xsd">

    <input>
        <sumo-net-file value="/home/parksik/git/sumo/trunk/Test2to1.net.xml"/>
    </input>

    <output>
        <output-file value="/home/parksik/git/sumo/trunk/Test2to1.net.xml"/>
    </output>

    <processing>
        <geometry.min-radius.fix.railways value="false"/>
        <geometry.max-grade.fix value="false"/>
        <offset.disable-normalization value="true"/>
        <lefthand value="false"/>
    </processing>

    <junctions>
        <no-internal-links value="true"/>
        <no-turnarounds value="true"/>
        <junctions.corner-detail value="5"/>
        <junctions.limit-turn-speed value="5.5"/>
        <rectangular-lane-cut value="false"/>
    </junctions>

    <pedestrian>
        <walkingareas value="false"/>
    </pedestrian>

</configuration>
-->

<net version="1.9" junctionCornerDetail="5" limitTurnSpeed="5.50" xmlns:xsi="http://www.w3.org/2001/XMLSchema-instance" xsi:noNamespaceSchemaLocation="http://sumo.dlr.de/xsd/net_file.xsd">

    <location netOffset="0.00,0.00" convBoundary="-4.72,65.40,126.99,65.81" origBoundary="-10000000000.00,-10000000000.00,10000000000.00,10000000000.00" projParameter="!"/>

    <edge id="E0" from="J1" to="J0" priority="-1">
        <lane id="E0_0" index="0" speed="13.89" length="70.28" shape="61.57,67.41 -4.72,67.41"/>
    </edge>
    <edge id="E2" from="J2" to="J1" priority="-1">
        <lane id="E2_0" index="0" speed="13.89" length="61.43" shape="127.02,70.20 69.59,70.58"/>
        <lane id="E2_1" index="1" speed="13.89" length="61.43" shape="127.00,67.00 69.57,67.38"/>
    </edge>
    <edge id="E3" from="J0" to="J1" priority="-1">
        <lane id="E3_0" index="0" speed="13.89" length="70.28" shape="-4.72,64.21 61.57,64.21"/>
    </edge>
    <edge id="E4" from="J1" to="J2" priority="-1">
        <lane id="E4_0" index="0" speed="13.89" length="61.43" shape="69.55,64.18 126.98,63.80"/>
    </edge>

    <junction id="J0" type="dead_end" x="-4.72" y="65.81" incLanes="E0_0" intLanes="" shape="-4.72,65.81 -4.72,69.01 -4.72,65.81"/>
    <junction id="J1" type="priority" x="65.56" y="65.81" incLanes="E2_0 E2_1 E3_0" intLanes="" shape="69.60,72.18 69.54,62.58 61.57,62.61 61.57,69.01 64.61,69.84 66.56,71.37 67.81,71.96">
        <request index="0" response="00" foes="00"/>
        <request index="1" response="00" foes="00"/>
    </junction>
    <junction id="J2" type="dead_end" x="126.99" y="65.40" incLanes="E4_0" intLanes="" shape="126.99,65.40 126.97,62.20 126.99,65.40"/>

    <connection from="E2" to="E0" fromLane="0" toLane="0" dir="s" state="M"/>
    <connection from="E3" to="E4" fromLane="0" toLane="0" dir="s" state="M"/>

</net>
