<polygons>
    <poly id="antenna_area_200" color="1,0,0" shape="205.0,25.0 201.9615506024416,59.729635533386066 192.9385241571817,93.40402866513374 178.20508075688775,124.99999999999999 158.20888862379562,153.55752193730785 133.55752193730788,178.20888862379562 105.00000000000003,198.20508075688772 73.40402866513377,212.93852415718166 39.72963553338608,221.9615506024416 5.000000000000012,225.0 -29.72963553338606,221.9615506024416 -63.404028665133694,212.9385241571817 -94.99999999999996,198.20508075688775 -123.55752193730788,178.20888862379562 -148.2088886237956,153.55752193730788 -168.2050807568877,125.00000000000007 -182.93852415718166,93.40402866513378 -191.9615506024416,59.72963553338605 -195.0,25.000000000000025 -191.96155060244163,-9.729635533386002 -182.9385241571817,-43.40402866513374 -168.20508075688772,-75.00000000000003 -148.20888862379567,-103.5575219373078 -123.55752193730788,-128.2088886237956 -95.00000000000009,-148.20508075688767 -63.40402866513371,-162.9385241571817 -29.729635533386066,-171.9615506024416 4.999999999999964,-175.0 39.729635533385995,-171.96155060244163 73.4040286651338,-162.93852415718166 104.99999999999987,-148.2050807568878 133.55752193730785,-128.20888862379562 158.20888862379556,-103.55752193730791 178.20508075688775,-74.99999999999993 192.9385241571817,-43.40402866513372 201.9615506024416,-9.72963553338608 205.0,25.0"/>
</polygons>