<polygons>
    <poly id="antenna_area_100" color="1,0,0" shape="105.0,25.0 103.4807753012208,42.36481776669304 98.96926207859084,59.20201433256687 91.60254037844388,75.0 81.60444431189781,89.27876096865393 69.27876096865394,101.60444431189781 55.000000000000014,111.60254037844386 39.20201433256688,118.96926207859083 22.36481776669304,123.4807753012208 5.000000000000006,125.0 -12.36481776669303,123.4807753012208 -29.202014332566847,118.96926207859084 -44.99999999999998,111.60254037844388 -59.27876096865394,101.60444431189781 -71.6044443118978,89.27876096865394 -81.60254037844385,75.00000000000003 -88.96926207859083,59.20201433256689 -93.4807753012208,42.36481776669302 -95.0,25.00000000000001 -93.48077530122082,7.635182233306999 -88.96926207859084,-9.202014332566868 -81.60254037844386,-25.000000000000014 -71.60444431189784,-39.2787609686539 -59.27876096865394,-51.604444311897794 -45.00000000000004,-61.602540378443834 -29.202014332566854,-68.96926207859084 -12.364817766693033,-73.4807753012208 4.999999999999981,-75.0 22.364817766692997,-73.48077530122082 39.2020143325669,-68.96926207859083 54.999999999999936,-61.602540378443905 69.27876096865393,-51.60444431189781 81.60444431189778,-39.278760968653955 91.60254037844388,-24.999999999999964 98.96926207859084,-9.202014332566861 103.4807753012208,7.63518223330696 105.0,25.0"/>
</polygons>