<?xml version="1.0" encoding="UTF-8"?>

<!-- generated on 2024-11-03 12:41:48 by Eclipse SUMO netedit Version 81b40c8c3af
<neteditConfiguration xmlns:xsi="http://www.w3.org/2001/XMLSchema-instance" xsi:noNamespaceSchemaLocation="http://sumo.dlr.de/xsd/neteditConfiguration.xsd">

    <input>
        <sumo-net-file value="/home/lab1/Documents/git/new_sumo/sumo/sim/coautodrv/net/test3.net.xml"/>
    </input>

    <output>
        <output-file value="/home/lab1/Documents/git/new_sumo/sumo/sim/coautodrv/net/test3.net.xml"/>
    </output>

    <processing>
        <geometry.min-radius.fix.railways value="false"/>
        <geometry.max-grade.fix value="false"/>
        <offset.disable-normalization value="true"/>
        <lefthand value="0"/>
    </processing>

    <junctions>
        <no-turnarounds value="true"/>
        <junctions.corner-detail value="5"/>
        <junctions.limit-turn-speed value="5.50"/>
        <rectangular-lane-cut value="0"/>
    </junctions>

    <pedestrian>
        <walkingareas value="0"/>
    </pedestrian>

</neteditConfiguration>
-->

<net version="1.20" junctionCornerDetail="5" limitTurnSpeed="5.50" xmlns:xsi="http://www.w3.org/2001/XMLSchema-instance" xsi:noNamespaceSchemaLocation="http://sumo.dlr.de/xsd/net_file.xsd">

    <location netOffset="0.00,0.00" convBoundary="-300.00,-300.00,300.00,300.00" origBoundary="-10000000000.00,-10000000000.00,10000000000.00,10000000000.00" projParameter="!"/>

    <edge id=":J0_0" function="internal">
        <lane id=":J0_0_0" index="0" speed="22.22" length="7.85" shape="2.22,4.49 -3.33,-1.06"/>
    </edge>
    <edge id=":J0_1" function="internal">
        <lane id=":J0_1_0" index="0" speed="22.22" length="7.85" shape="-1.06,-3.33 4.49,2.22"/>
    </edge>
    <edge id=":J0_2" function="internal">
        <lane id=":J0_2_0" index="0" speed="22.22" length="7.47" shape="-1.77,6.08 -1.81,3.59 -2.08,1.58 -2.59,0.02 -3.33,-1.06"/>
    </edge>
    <edge id=":J0_3" function="internal">
        <lane id=":J0_3_0" index="0" speed="22.22" length="11.49" shape="-1.77,6.08 -1.28,2.15 -0.07,0.20 1.85,0.22 4.49,2.22"/>
    </edge>
    <edge id=":J1_0" function="internal">
        <lane id=":J1_0_0" index="0" speed="22.22" length="17.15" shape="102.45,104.71 99.13,102.53 94.91,101.13 90.42,100.25 86.31,99.66"/>
    </edge>
    <edge id=":J1_1" function="internal">
        <lane id=":J1_1_0" index="0" speed="22.22" length="18.67" shape="102.45,104.71 89.25,91.51"/>
    </edge>
    <edge id=":J1_2" function="internal">
        <lane id=":J1_2_0" index="0" speed="22.22" length="18.67" shape="91.51,89.25 104.71,102.45"/>
    </edge>
    <edge id=":J1_3" function="internal">
        <lane id=":J1_3_0" index="0" speed="22.22" length="6.99" shape="91.51,89.25 95.96,94.65"/>
    </edge>
    <edge id=":J1_6" function="internal">
        <lane id=":J1_6_0" index="0" speed="22.22" length="14.61" shape="95.96,94.65 96.07,94.78 96.72,98.36 93.47,99.99 86.31,99.66"/>
    </edge>
    <edge id=":J1_4" function="internal">
        <lane id=":J1_4_0" index="0" speed="22.22" length="10.33" shape="86.76,96.49 90.19,96.65 91.74,95.87 91.43,94.16 89.25,91.51"/>
    </edge>
    <edge id=":J1_5" function="internal">
        <lane id=":J1_5_0" index="0" speed="22.22" length="19.13" shape="86.76,96.49 91.16,97.22 96.27,98.41 101.11,100.13 104.71,102.45"/>
    </edge>
    <edge id=":J2_0" function="internal">
        <lane id=":J2_0_0" index="0" speed="22.22" length="9.08" shape="-68.09,77.60 -70.75,77.18 -72.58,76.86 -74.41,76.67 -77.10,76.60"/>
    </edge>
    <edge id=":J2_1" function="internal">
        <lane id=":J2_1_0" index="0" speed="22.22" length="5.48" shape="-68.09,77.60 -73.04,76.46 -73.33,76.19"/>
    </edge>
    <edge id=":J2_4" function="internal">
        <lane id=":J2_4_0" index="0" speed="22.22" length="9.91" shape="-73.33,76.19 -74.69,74.91 -73.03,72.96 -68.07,70.61"/>
    </edge>
    <edge id=":J2_2" function="internal">
        <lane id=":J2_2_0" index="0" speed="22.22" length="9.56" shape="-77.10,73.40 -74.31,73.20 -72.47,72.64 -70.68,71.76 -68.07,70.61"/>
    </edge>
    <edge id=":J2_3" function="internal">
        <lane id=":J2_3_0" index="0" speed="22.22" length="9.53" shape="-77.10,73.40 -74.27,73.47 -72.35,73.67 -70.43,73.99 -67.64,74.44"/>
    </edge>
    <edge id=":J5_0" function="internal">
        <lane id=":J5_0_0" index="0" speed="22.22" length="14.75" shape="-95.16,-92.90 -105.59,-103.33"/>
    </edge>
    <edge id=":J5_1" function="internal">
        <lane id=":J5_1_0" index="0" speed="22.22" length="4.50" shape="-95.16,-92.90 -97.87,-96.50"/>
    </edge>
    <edge id=":J5_6" function="internal">
        <lane id=":J5_6_0" index="0" speed="22.22" length="11.09" shape="-97.87,-96.50 -98.43,-99.75 -96.87,-102.65 -93.17,-105.21"/>
    </edge>
    <edge id=":J5_2" function="internal">
        <lane id=":J5_2_0" index="0" speed="22.22" length="9.10" shape="-91.74,-102.34 -93.89,-100.85 -94.81,-99.16 -94.48,-97.26 -92.90,-95.16"/>
    </edge>
    <edge id=":J5_3" function="internal">
        <lane id=":J5_3_0" index="0" speed="22.22" length="14.92" shape="-91.74,-102.34 -95.82,-100.80 -99.49,-100.44 -102.75,-101.29 -105.59,-103.33"/>
    </edge>
    <edge id=":J5_4" function="internal">
        <lane id=":J5_4_0" index="0" speed="22.22" length="10.90" shape="-103.33,-105.59 -101.33,-104.20 -98.97,-103.67 -96.25,-104.01 -93.17,-105.21"/>
    </edge>
    <edge id=":J5_5" function="internal">
        <lane id=":J5_5_0" index="0" speed="22.22" length="14.75" shape="-103.33,-105.59 -92.90,-95.16"/>
    </edge>

    <edge id="-E0" from="J1" to="J0" priority="-1">
        <lane id="-E0_0" index="0" speed="22.22" length="123.07" shape="89.25,91.51 2.22,4.49"/>
    </edge>
    <edge id="-E2" from="J2" to="J1" priority="-1">
        <lane id="-E2_0" index="0" speed="22.22" length="155.97" shape="-67.64,74.44 86.76,96.49"/>
    </edge>
    <edge id="-E3" from="J3" to="J1" priority="-1">
        <lane id="-E3_0" index="0" speed="22.22" length="277.78" shape="298.87,301.13 102.45,104.71"/>
    </edge>
    <edge id="-E4" from="J4" to="J2" priority="-1">
        <lane id="-E4_0" index="0" speed="22.22" length="72.90" shape="-150.00,73.40 -77.10,73.40"/>
    </edge>
    <edge id="-E5" from="J5" to="J0" priority="-1">
        <lane id="-E5_0" index="0" speed="22.22" length="129.88" shape="-92.90,-95.16 -1.06,-3.33"/>
    </edge>
    <edge id="-E6" from="J6" to="J5" priority="-1">
        <lane id="-E6_0" index="0" speed="22.22" length="103.36" shape="0.72,-148.57 -91.74,-102.34"/>
    </edge>
    <edge id="-E7" from="J7" to="J5" priority="-1">
        <lane id="-E7_0" index="0" speed="22.22" length="276.54" shape="-298.87,-301.13 -103.33,-105.59"/>
    </edge>
    <edge id="E0" from="J0" to="J1" priority="-1">
        <lane id="E0_0" index="0" speed="22.22" length="123.07" shape="4.49,2.22 91.51,89.25"/>
    </edge>
    <edge id="E1" from="J2" to="J0" priority="-1" shape="-75.00,75.00 -43.81,62.94 -27.24,51.57 -10.78,35.79 -0.54,18.91 0.00,0.00">
        <lane id="E1_0" index="0" speed="22.22" length="98.93" shape="-68.07,70.61 -44.56,61.52 -28.25,50.32 -12.04,34.78 -2.13,18.44 -1.77,6.08"/>
    </edge>
    <edge id="E2" from="J1" to="J2" priority="-1">
        <lane id="E2_0" index="0" speed="22.22" length="155.97" shape="86.31,99.66 -68.09,77.60"/>
    </edge>
    <edge id="E3" from="J1" to="J3" priority="-1">
        <lane id="E3_0" index="0" speed="22.22" length="277.78" shape="104.71,102.45 301.13,298.87"/>
    </edge>
    <edge id="E4" from="J2" to="J4" priority="-1">
        <lane id="E4_0" index="0" speed="22.22" length="72.90" shape="-77.10,76.60 -150.00,76.60"/>
    </edge>
    <edge id="E5" from="J0" to="J5" priority="-1">
        <lane id="E5_0" index="0" speed="22.22" length="129.88" shape="-3.33,-1.06 -95.16,-92.90"/>
    </edge>
    <edge id="E6" from="J5" to="J6" priority="-1">
        <lane id="E6_0" index="0" speed="22.22" length="103.36" shape="-93.17,-105.21 -0.72,-151.43"/>
    </edge>
    <edge id="E7" from="J5" to="J7" priority="-1">
        <lane id="E7_0" index="0" speed="22.22" length="276.54" shape="-105.59,-103.33 -301.13,-298.87"/>
    </edge>

    <junction id="J0" type="priority" x="0.00" y="0.00" incLanes="-E0_0 -E5_0 E1_0" intLanes=":J0_0_0 :J0_1_0 :J0_2_0 :J0_3_0" shape="1.09,5.62 5.62,1.09 0.07,-4.46 -4.46,0.07 -3.79,1.27 -3.58,2.17 -3.43,3.26 -3.37,4.55 -3.37,6.03 -0.17,6.12 -0.01,5.30 0.17,5.14 0.41,5.13 0.72,5.29">
        <request index="0" response="0000" foes="1100" cont="0"/>
        <request index="1" response="0000" foes="1000" cont="0"/>
        <request index="2" response="0001" foes="0001" cont="0"/>
        <request index="3" response="0011" foes="0011" cont="0"/>
    </junction>
    <junction id="J1" type="priority" x="100.00" y="100.00" incLanes="-E3_0 E0_0 -E2_0" intLanes=":J1_0_0 :J1_1_0 :J1_2_0 :J1_6_0 :J1_4_0 :J1_5_0" shape="101.32,105.85 105.85,101.32 92.65,88.12 88.12,92.65 89.25,94.15 89.25,94.63 88.87,94.91 88.12,95.00 86.99,94.91 86.08,101.24 89.56,101.59 92.28,101.69 94.55,101.86 96.62,102.40 98.78,103.63">
        <request index="0" response="000000" foes="001000" cont="0"/>
        <request index="1" response="000000" foes="111000" cont="0"/>
        <request index="2" response="000000" foes="100000" cont="0"/>
        <request index="3" response="000011" foes="100011" cont="1"/>
        <request index="4" response="000010" foes="000010" cont="0"/>
        <request index="5" response="001110" foes="001110" cont="0"/>
    </junction>
    <junction id="J2" type="priority" x="-75.00" y="75.00" incLanes="E2_0 -E4_0" intLanes=":J2_0_0 :J2_4_0 :J2_2_0 :J2_3_0" shape="-68.32,79.19 -67.41,72.85 -67.50,72.10 -68.65,69.11 -71.69,70.52 -72.76,71.06 -73.86,71.46 -75.22,71.71 -77.10,71.80 -77.10,78.20 -73.83,78.32 -72.69,78.46 -71.55,78.65 -70.18,78.90">
        <request index="0" response="0000" foes="0000" cont="0"/>
        <request index="1" response="1100" foes="1100" cont="1"/>
        <request index="2" response="0000" foes="0010" cont="0"/>
        <request index="3" response="0000" foes="0010" cont="0"/>
    </junction>
    <junction id="J3" type="dead_end" x="300.00" y="300.00" incLanes="E3_0" intLanes="" shape="300.00,300.00 302.26,297.74 300.00,300.00"/>
    <junction id="J4" type="dead_end" x="-150.00" y="75.00" incLanes="E4_0" intLanes="" shape="-150.00,75.00 -150.00,78.20 -150.00,75.00"/>
    <junction id="J5" type="priority" x="-100.00" y="-100.00" incLanes="E5_0 -E6_0 -E7_0" intLanes=":J5_0_0 :J5_6_0 :J5_2_0 :J5_3_0 :J5_4_0 :J5_5_0" shape="-96.29,-91.77 -91.77,-96.29 -92.94,-98.07 -93.00,-98.86 -92.69,-99.60 -92.03,-100.29 -91.02,-100.91 -93.88,-106.64 -97.24,-105.43 -98.70,-105.29 -100.02,-105.46 -101.18,-105.93 -102.20,-106.72 -106.72,-102.20">
        <request index="0" response="000000" foes="001000" cont="0"/>
        <request index="1" response="110000" foes="111000" cont="1"/>
        <request index="2" response="100000" foes="100000" cont="0"/>
        <request index="3" response="100011" foes="100011" cont="0"/>
        <request index="4" response="000000" foes="000010" cont="0"/>
        <request index="5" response="000000" foes="001110" cont="0"/>
    </junction>
    <junction id="J6" type="dead_end" x="0.00" y="-150.00" incLanes="E6_0" intLanes="" shape="0.00,-150.00 -1.43,-152.86 0.00,-150.00"/>
    <junction id="J7" type="dead_end" x="-300.00" y="-300.00" incLanes="E7_0" intLanes="" shape="-300.00,-300.00 -302.26,-297.74 -300.00,-300.00"/>

    <junction id=":J1_6_0" type="internal" x="95.96" y="94.65" incLanes=":J1_3_0 -E3_0" intLanes=":J1_0_0 :J1_1_0 :J1_5_0"/>
    <junction id=":J2_4_0" type="internal" x="-73.33" y="76.19" incLanes=":J2_1_0 -E4_0" intLanes=":J2_2_0 :J2_3_0"/>
    <junction id=":J5_6_0" type="internal" x="-97.87" y="-96.50" incLanes=":J5_1_0 -E7_0" intLanes=":J5_3_0 :J5_4_0 :J5_5_0"/>

    <connection from="-E0" to="E5" fromLane="0" toLane="0" via=":J0_0_0" dir="s" state="M"/>
    <connection from="-E2" to="-E0" fromLane="0" toLane="0" via=":J1_4_0" dir="r" state="m"/>
    <connection from="-E2" to="E3" fromLane="0" toLane="0" via=":J1_5_0" dir="s" state="m"/>
    <connection from="-E3" to="E2" fromLane="0" toLane="0" via=":J1_0_0" dir="R" state="M"/>
    <connection from="-E3" to="-E0" fromLane="0" toLane="0" via=":J1_1_0" dir="s" state="M"/>
    <connection from="-E4" to="E1" fromLane="0" toLane="0" via=":J2_2_0" dir="R" state="M"/>
    <connection from="-E4" to="-E2" fromLane="0" toLane="0" via=":J2_3_0" dir="s" state="M"/>
    <connection from="-E5" to="E0" fromLane="0" toLane="0" via=":J0_1_0" dir="s" state="M"/>
    <connection from="-E6" to="-E5" fromLane="0" toLane="0" via=":J5_2_0" dir="r" state="m"/>
    <connection from="-E6" to="E7" fromLane="0" toLane="0" via=":J5_3_0" dir="l" state="m"/>
    <connection from="-E7" to="E6" fromLane="0" toLane="0" via=":J5_4_0" dir="r" state="M"/>
    <connection from="-E7" to="-E5" fromLane="0" toLane="0" via=":J5_5_0" dir="s" state="M"/>
    <connection from="E0" to="E3" fromLane="0" toLane="0" via=":J1_2_0" dir="s" state="M"/>
    <connection from="E0" to="E2" fromLane="0" toLane="0" via=":J1_3_0" dir="l" state="m"/>
    <connection from="E1" to="E5" fromLane="0" toLane="0" via=":J0_2_0" dir="r" state="m"/>
    <connection from="E1" to="E0" fromLane="0" toLane="0" via=":J0_3_0" dir="l" state="m"/>
    <connection from="E2" to="E4" fromLane="0" toLane="0" via=":J2_0_0" dir="s" state="M"/>
    <connection from="E2" to="E1" fromLane="0" toLane="0" via=":J2_1_0" dir="l" state="m"/>
    <connection from="E5" to="E7" fromLane="0" toLane="0" via=":J5_0_0" dir="s" state="M"/>
    <connection from="E5" to="E6" fromLane="0" toLane="0" via=":J5_1_0" dir="l" state="m"/>

    <connection from=":J0_0" to="E5" fromLane="0" toLane="0" dir="s" state="M"/>
    <connection from=":J0_1" to="E0" fromLane="0" toLane="0" dir="s" state="M"/>
    <connection from=":J0_2" to="E5" fromLane="0" toLane="0" dir="r" state="M"/>
    <connection from=":J0_3" to="E0" fromLane="0" toLane="0" dir="l" state="M"/>
    <connection from=":J1_0" to="E2" fromLane="0" toLane="0" dir="R" state="M"/>
    <connection from=":J1_1" to="-E0" fromLane="0" toLane="0" dir="s" state="M"/>
    <connection from=":J1_2" to="E3" fromLane="0" toLane="0" dir="s" state="M"/>
    <connection from=":J1_3" to="E2" fromLane="0" toLane="0" via=":J1_6_0" dir="l" state="m"/>
    <connection from=":J1_6" to="E2" fromLane="0" toLane="0" dir="l" state="M"/>
    <connection from=":J1_4" to="-E0" fromLane="0" toLane="0" dir="r" state="M"/>
    <connection from=":J1_5" to="E3" fromLane="0" toLane="0" dir="s" state="M"/>
    <connection from=":J2_0" to="E4" fromLane="0" toLane="0" dir="s" state="M"/>
    <connection from=":J2_1" to="E1" fromLane="0" toLane="0" via=":J2_4_0" dir="l" state="m"/>
    <connection from=":J2_4" to="E1" fromLane="0" toLane="0" dir="l" state="M"/>
    <connection from=":J2_2" to="E1" fromLane="0" toLane="0" dir="R" state="M"/>
    <connection from=":J2_3" to="-E2" fromLane="0" toLane="0" dir="s" state="M"/>
    <connection from=":J5_0" to="E7" fromLane="0" toLane="0" dir="s" state="M"/>
    <connection from=":J5_1" to="E6" fromLane="0" toLane="0" via=":J5_6_0" dir="l" state="m"/>
    <connection from=":J5_6" to="E6" fromLane="0" toLane="0" dir="l" state="M"/>
    <connection from=":J5_2" to="-E5" fromLane="0" toLane="0" dir="r" state="M"/>
    <connection from=":J5_3" to="E7" fromLane="0" toLane="0" dir="l" state="M"/>
    <connection from=":J5_4" to="E6" fromLane="0" toLane="0" dir="r" state="M"/>
    <connection from=":J5_5" to="-E5" fromLane="0" toLane="0" dir="s" state="M"/>

</net>
