<polygons>
    <poly id="antenna_area_200" color="1,0,0" shape="725.0,525.0 721.9615506024415,559.729635533386 712.9385241571817,593.4040286651338 698.2050807568878,625.0 678.2088886237956,653.5575219373079 653.5575219373079,678.2088886237956 625.0,698.2050807568877 593.4040286651338,712.9385241571816 559.729635533386,721.9615506024415 525.0,725.0 490.27036446661396,721.9615506024415 456.5959713348663,712.9385241571817 425.00000000000006,698.2050807568878 396.4424780626921,678.2088886237956 371.7911113762044,653.5575219373079 351.7949192431123,625.0000000000001 337.06147584281837,593.4040286651338 328.0384493975584,559.729635533386 325.0,525.0 328.03844939755834,490.270364466614 337.0614758428183,456.59597133486625 351.7949192431123,425.0 371.7911113762043,396.4424780626922 396.4424780626921,371.7911113762044 424.9999999999999,351.7949192431123 456.5959713348663,337.0614758428183 490.27036446661396,328.0384493975584 525.0,325.0 559.729635533386,328.03844939755834 593.4040286651338,337.06147584281837 624.9999999999999,351.7949192431122 653.5575219373079,371.7911113762044 678.2088886237956,396.4424780626921 698.2050807568878,425.00000000000006 712.9385241571817,456.59597133486625 721.9615506024415,490.2703644666139 725.0,525.0"/>
</polygons>