<polygons>
    <poly id="antenna_area_300" color="1,0,0" shape="825.0,525.0 820.4423259036623,577.0944533000791 806.9077862357725,627.6060429977006 784.8076211353316,675.0 754.8133329356934,717.8362829059618 717.8362829059618,754.8133329356934 675.0,784.8076211353316 627.6060429977007,806.9077862357725 577.0944533000791,820.4423259036623 525.0,825.0 472.90554669992093,820.4423259036623 422.39395700229943,806.9077862357725 375.00000000000006,784.8076211353316 332.1637170940382,754.8133329356934 295.1866670643066,717.8362829059619 265.19237886466846,675.0000000000001 243.0922137642275,627.6060429977007 229.55767409633762,577.0944533000791 225.0,525.0 229.55767409633756,472.905546699921 243.0922137642275,422.39395700229943 265.1923788646684,375.0 295.1866670643065,332.16371709403836 332.16371709403813,295.1866670643066 374.9999999999999,265.1923788646685 422.39395700229943,243.0922137642275 472.9055466999209,229.55767409633762 525.0,225.0 577.094453300079,229.55767409633756 627.6060429977007,243.0922137642275 674.9999999999998,265.1923788646683 717.8362829059618,295.18666706430656 754.8133329356933,332.16371709403813 784.8076211353316,375.0000000000001 806.9077862357725,422.39395700229943 820.4423259036623,472.9055466999209 825.0,525.0"/>
</polygons>