<polygons>
    <poly id="antenna_area_500" color="1,0,0" shape="1025.0,525.0 1017.403876506104,611.8240888334651 994.8463103929541,696.0100716628343 958.0127018922194,775.0 908.022221559489,846.3938048432697 846.3938048432697,908.022221559489 775.0,958.0127018922193 696.0100716628344,994.8463103929541 611.8240888334652,1017.403876506104 525.0,1025.0 438.17591116653483,1017.403876506104 353.9899283371658,994.8463103929541 275.0000000000001,958.0127018922194 203.60619515673034,908.022221559489 141.97777844051103,846.3938048432697 91.98729810778076,775.0000000000002 55.15368960704586,696.0100716628344 32.596123493896016,611.8240888334651 25.0,525.0000000000001 32.59612349389596,438.175911166535 55.153689607045806,353.9899283371657 91.9872981077807,274.99999999999994 141.9777784405108,203.60619515673056 203.60619515673028,141.97777844051103 274.9999999999998,91.98729810778082 353.98992833716574,55.153689607045806 438.17591116653483,32.596123493896016 524.9999999999999,25.0 611.824088833465,32.59612349389596 696.0100716628344,55.15368960704586 774.9999999999997,91.98729810778048 846.3938048432697,141.97777844051092 908.0222215594889,203.60619515673022 958.0127018922194,275.00000000000017 994.8463103929541,353.9899283371657 1017.403876506104,438.1759111665348 1025.0,525.0"/>
</polygons>