<?xml version="1.0" encoding="UTF-8"?>

<routes xmlns:xsi="http://www.w3.org/2001/XMLSchema-instance" xsi:noNamespaceSchemaLocation="http://sumo.dlr.de/xsd/routes_file.xsd">
    <!-- VTypes -->
    <vType id="C-VEH" color="red" lcCooperativeRoundabout="0" accel="5.0" decel="4.5" carFollowModel="ACC"/>
    <vType id="CE-VEH" vClass="truck" carFollowModel="ACC"/>
    <vType id="E-CDA" color="yellow" lcCooperativeRoundabout="0" accel="5.0" decel="4.5" carFollowModel="ACC"/>
    <vType id="N-VEH" color="white" carFollowModel="ACC"/>
    <vType id="T-CDA" color="0,156,255" carFollowModel="ACC"/>
    <!-- Vehicles, persons and containers (sorted by depart) -->

    <!-- Scenario 1 응급차량이 먼저 회전교차로에 진입했기 때문에 새로 진입하는 차량에 비해 우선권이 있다 
    <trip id="CE_VEH" type="CE-VEH" depart="0.00" departLane="0" from="WI" to="NO"/>
    <trip id="E_CDA" type="E-CDA" depart="16.00" departLane="0" from="EI" to="NO"/>
    <trip id="C_VEH" type="C-VEH" depart="16.00" departLane="1" from="EI" to="NO"/>
    -->

    <!-- Scenario 3 일반차량이 응급차량보다 먼저 회전교차로에 진입할 수 있지만, 응급차량을 위해 일반차량이 회전 교차로 진입을 하지 않고 대기해 응급 차량에게 양보 -->
    <trip id="E_CDA" type="E-CDA" depart="0.00" departLane="0" from="WI" to="NO"/>
    <trip id="CE_VEH" type="CE-VEH" depart="10.00" departLane="0" from="EI" to="NO"/>
    
</routes>
