<?xml version="1.0" encoding="UTF-8"?>

<configuration xmlns:xsi="http://www.w3.org/2001/XMLSchema-instance" xsi:noNamespaceSchemaLocation="http://sumo.dlr.de/xsd/sumoConfiguration.xsd">

    <input>
        <net-file value="RoundaboutNormal.net.xml"/>
        <route-files value="D_8_1.rou.xml"/>
        <gui-settings-file value="Roundabout.settings.xml"/>
    </input>

</configuration>
