<?xml version="1.0" encoding="UTF-8"?>

<!-- generated on 2024-08-26 01:46:17 by Eclipse SUMO netedit Version f00bd13363a
<neteditConfiguration xmlns:xsi="http://www.w3.org/2001/XMLSchema-instance" xsi:noNamespaceSchemaLocation="http://sumo.dlr.de/xsd/neteditConfiguration.xsd">

    <input>
        <sumo-net-file value="/Users/parksik/Git/sumo/sim/coautodrv/Roundabout.net.xml"/>
    </input>

    <output>
        <output-file value="/Users/parksik/Git/sumo/sim/coautodrv/Roundabout.net.xml"/>
    </output>

    <processing>
        <geometry.min-radius.fix.railways value="false"/>
        <geometry.max-grade.fix value="false"/>
        <offset.disable-normalization value="true"/>
        <lefthand value="0"/>
    </processing>

    <junctions>
        <no-turnarounds value="true"/>
        <junctions.corner-detail value="5"/>
        <junctions.limit-turn-speed value="5.50"/>
        <rectangular-lane-cut value="0"/>
    </junctions>

    <pedestrian>
        <walkingareas value="0"/>
    </pedestrian>

</neteditConfiguration>
-->

<net version="1.20" junctionCornerDetail="5" limitTurnSpeed="5.50" xmlns:xsi="http://www.w3.org/2001/XMLSchema-instance" xsi:noNamespaceSchemaLocation="http://sumo.dlr.de/xsd/net_file.xsd">

    <location netOffset="0.00,0.00" convBoundary="-170.00,-70.00,170.00,270.00" origBoundary="-10000000000.00,-10000000000.00,10000000000.00,10000000000.00" projParameter="!"/>

    <edge id=":eround_0" function="internal">
        <lane id=":eround_0_0" index="0" disallow="pedestrian" speed="6.50" length="8.82" shape="30.13,104.80 27.74,105.14 26.01,106.15 24.94,107.84 24.54,110.20"/>
        <lane id=":eround_0_1" index="1" disallow="pedestrian" speed="10.56" length="12.66" shape="30.13,101.60 28.54,102.12 26.48,103.70 23.95,106.32 20.94,109.99"/>
    </edge>
    <edge id=":eround_2" function="internal">
        <lane id=":eround_2_0" index="0" disallow="pedestrian" speed="7.06" length="9.49" shape="23.26,90.03 24.00,92.29 25.39,93.91 27.44,94.88 30.13,95.20"/>
    </edge>
    <edge id=":eround_3" function="internal">
        <lane id=":eround_3_0" index="0" disallow="pedestrian" speed="13.89" length="20.27" shape="23.26,90.03 24.17,95.94 24.59,100.07 24.67,104.22 24.54,110.20"/>
    </edge>
    <edge id=":eround_4" function="internal">
        <lane id=":eround_4_0" index="0" disallow="pedestrian" speed="10.49" length="2.15" shape="19.86,90.62 21.20,92.31"/>
    </edge>
    <edge id=":eround_5" function="internal">
        <lane id=":eround_5_0" index="0" disallow="pedestrian" speed="10.86" length="20.92" shape="19.86,90.62 22.81,95.90 23.97,100.88 23.34,105.58 20.94,109.99"/>
    </edge>
    <edge id=":eround_6" function="internal">
        <lane id=":eround_6_0" index="0" disallow="pedestrian" speed="10.49" length="11.15" shape="21.20,92.31 22.57,94.03 25.18,96.46 27.70,97.91 30.13,98.40"/>
    </edge>
    <edge id=":nround_0" function="internal">
        <lane id=":nround_0_0" index="0" disallow="pedestrian" speed="6.55" length="7.82" shape="-4.80,128.56 -5.08,126.49 -5.93,124.88 -7.34,123.74 -9.32,123.07"/>
        <lane id=":nround_0_1" index="1" disallow="pedestrian" speed="8.06" length="12.28" shape="-1.60,128.56 -2.04,125.30 -3.38,122.78 -5.60,120.99 -8.71,119.92"/>
    </edge>
    <edge id=":nround_2" function="internal">
        <lane id=":nround_2_0" index="0" disallow="pedestrian" speed="6.56" length="7.82" shape="9.32,123.05 7.34,123.73 5.93,124.87 5.08,126.48 4.80,128.56"/>
    </edge>
    <edge id=":nround_3" function="internal">
        <lane id=":nround_3_0" index="0" disallow="pedestrian" speed="13.89" length="18.86" shape="9.32,123.05 3.84,124.07 -0.00,124.41 -3.84,124.07 -9.32,123.07"/>
    </edge>
    <edge id=":nround_4" function="internal">
        <lane id=":nround_4_0" index="0" disallow="pedestrian" speed="8.07" length="3.65" shape="8.70,119.91 5.59,120.98 5.31,121.21"/>
    </edge>
    <edge id=":nround_5" function="internal">
        <lane id=":nround_5_0" index="0" disallow="pedestrian" speed="13.89" length="17.61" shape="8.70,119.91 3.58,120.86 -0.00,121.18 -3.59,120.87 -8.71,119.92"/>
    </edge>
    <edge id=":nround_6" function="internal">
        <lane id=":nround_6_0" index="0" disallow="pedestrian" speed="8.07" length="8.64" shape="5.31,121.21 3.37,122.77 2.04,125.30 1.60,128.56"/>
    </edge>
    <edge id=":sround_0" function="internal">
        <lane id=":sround_0_0" index="0" disallow="pedestrian" speed="6.95" length="8.65" shape="4.80,70.85 5.09,73.25 5.97,75.12 7.43,76.45 9.47,77.26"/>
        <lane id=":sround_0_1" index="1" disallow="pedestrian" speed="8.40" length="13.00" shape="1.60,70.85 2.05,74.40 3.39,77.17 5.62,79.16 8.75,80.38"/>
    </edge>
    <edge id=":sround_2" function="internal">
        <lane id=":sround_2_0" index="0" disallow="pedestrian" speed="6.53" length="8.22" shape="-9.69,76.41 -7.55,75.82 -6.02,74.70 -5.11,73.05 -4.80,70.85"/>
    </edge>
    <edge id=":sround_3" function="internal">
        <lane id=":sround_3_0" index="0" disallow="pedestrian" speed="13.89" length="19.36" shape="-9.69,76.41 -4.00,75.72 -0.05,75.57 3.87,76.04 9.47,77.26"/>
    </edge>
    <edge id=":sround_4" function="internal">
        <lane id=":sround_4_0" index="0" disallow="pedestrian" speed="8.03" length="3.78" shape="-9.28,79.58 -5.92,78.66 -5.68,78.49"/>
    </edge>
    <edge id=":sround_5" function="internal">
        <lane id=":sround_5_0" index="0" disallow="pedestrian" speed="13.89" length="18.22" shape="-9.28,79.58 -3.92,78.93 -0.21,78.79 3.48,79.23 8.75,80.38"/>
    </edge>
    <edge id=":sround_6" function="internal">
        <lane id=":sround_6_0" index="0" disallow="pedestrian" speed="8.03" length="9.14" shape="-5.68,78.49 -3.52,76.90 -2.08,74.30 -1.60,70.85"/>
    </edge>
    <edge id=":wround_0" function="internal">
        <lane id=":wround_0_0" index="0" disallow="pedestrian" speed="6.84" length="8.90" shape="-23.33,109.81 -24.02,107.62 -25.30,106.05 -27.17,105.11 -29.64,104.80"/>
    </edge>
    <edge id=":wround_1" function="internal">
        <lane id=":wround_1_0" index="0" disallow="pedestrian" speed="13.89" length="19.85" shape="-23.33,109.81 -24.19,103.99 -24.55,99.96 -24.47,95.92 -24.06,90.05"/>
    </edge>
    <edge id=":wround_2" function="internal">
        <lane id=":wround_2_0" index="0" disallow="pedestrian" speed="10.07" length="1.77" shape="-20.13,109.29 -21.20,107.87"/>
    </edge>
    <edge id=":wround_3" function="internal">
        <lane id=":wround_3_0" index="0" disallow="pedestrian" speed="10.98" length="20.29" shape="-20.13,109.29 -22.76,104.26 -23.74,99.42 -23.06,94.79 -20.72,90.36"/>
    </edge>
    <edge id=":wround_6" function="internal">
        <lane id=":wround_6_0" index="0" disallow="pedestrian" speed="10.07" length="10.86" shape="-21.20,107.87 -22.67,105.92 -25.10,103.52 -27.42,102.08 -29.64,101.60"/>
    </edge>
    <edge id=":wround_4" function="internal">
        <lane id=":wround_4_0" index="0" disallow="pedestrian" speed="6.51" length="8.52" shape="-29.64,95.20 -27.35,94.88 -25.65,93.91 -24.55,92.30 -24.06,90.05"/>
        <lane id=":wround_4_1" index="1" disallow="pedestrian" speed="10.19" length="12.27" shape="-29.64,98.40 -27.94,97.90 -25.89,96.39 -23.48,93.88 -20.72,90.36"/>
    </edge>

    <edge id="EI" from="e" to="eround" priority="-1">
        <lane id="EI_0" index="0" disallow="pedestrian" speed="13.89" length="139.87" shape="170.00,104.80 30.13,104.80"/>
        <lane id="EI_1" index="1" disallow="pedestrian" speed="13.89" length="139.87" shape="170.00,101.60 30.13,101.60"/>
    </edge>
    <edge id="EN" from="eround" to="nround" priority="-1" shape="20.00,100.00 19.77,108.88 15.43,114.49 9.35,118.15 0.00,120.00">
        <lane id="EN_0" index="0" disallow="pedestrian" speed="13.89" length="18.38" shape="24.54,110.20 24.53,110.57 18.68,118.14 11.11,122.70 9.32,123.05"/>
        <lane id="EN_1" index="1" disallow="pedestrian" speed="13.89" length="18.38" shape="20.94,109.99 16.51,115.71 9.94,119.67 8.70,119.91"/>
    </edge>
    <edge id="EO" from="eround" to="e" priority="-1">
        <lane id="EO_0" index="0" disallow="pedestrian" speed="13.89" length="139.87" shape="30.13,95.20 170.00,95.20"/>
        <lane id="EO_1" index="1" disallow="pedestrian" speed="13.89" length="139.87" shape="30.13,98.40 170.00,98.40"/>
    </edge>
    <edge id="NI" from="n" to="nround" priority="-1">
        <lane id="NI_0" index="0" disallow="pedestrian" speed="13.89" length="141.44" shape="-4.80,270.00 -4.80,128.56"/>
        <lane id="NI_1" index="1" disallow="pedestrian" speed="13.89" length="141.44" shape="-1.60,270.00 -1.60,128.56"/>
    </edge>
    <edge id="NO" from="nround" to="n" priority="-1">
        <lane id="NO_0" index="0" disallow="pedestrian" speed="13.89" length="141.44" shape="4.80,128.56 4.80,270.00"/>
        <lane id="NO_1" index="1" disallow="pedestrian" speed="13.89" length="141.44" shape="1.60,128.56 1.60,270.00"/>
    </edge>
    <edge id="NW" from="nround" to="wround" priority="-1" shape="0.00,120.00 -10.06,118.03 -15.03,114.00 -18.66,108.61 -20.00,100.00">
        <lane id="NW_0" index="0" disallow="pedestrian" speed="13.89" length="18.10" shape="-9.32,123.07 -12.16,122.51 -18.61,117.28 -23.24,110.40 -23.33,109.81"/>
        <lane id="NW_1" index="1" disallow="pedestrian" speed="13.89" length="18.10" shape="-8.71,119.92 -10.76,119.52 -16.22,115.09 -20.13,109.29"/>
    </edge>
    <edge id="SE" from="sround" to="eround" priority="-1" shape="0.00,80.00 9.84,82.27 14.91,86.40 18.67,91.71 20.00,100.00">
        <lane id="SE_0" index="0" disallow="pedestrian" speed="13.89" length="17.45" shape="9.47,77.26 12.01,77.84 18.45,83.09 23.23,89.85 23.26,90.03"/>
        <lane id="SE_1" index="1" disallow="pedestrian" speed="13.89" length="17.45" shape="8.75,80.38 10.56,80.79 16.09,85.30 19.86,90.62"/>
    </edge>
    <edge id="SI" from="s" to="sround" priority="-1">
        <lane id="SI_0" index="0" disallow="pedestrian" speed="13.89" length="140.85" shape="4.80,-70.00 4.80,70.85"/>
        <lane id="SI_1" index="1" disallow="pedestrian" speed="13.89" length="140.85" shape="1.60,-70.00 1.60,70.85"/>
    </edge>
    <edge id="SO" from="sround" to="s" priority="-1">
        <lane id="SO_0" index="0" disallow="pedestrian" speed="13.89" length="140.85" shape="-4.80,70.85 -4.80,-70.00"/>
        <lane id="SO_1" index="1" disallow="pedestrian" speed="13.89" length="140.85" shape="-1.60,70.85 -1.60,-70.00"/>
    </edge>
    <edge id="WI" from="w" to="wround" priority="-1">
        <lane id="WI_0" index="0" disallow="pedestrian" speed="13.89" length="140.36" shape="-170.00,95.20 -29.64,95.20"/>
        <lane id="WI_1" index="1" disallow="pedestrian" speed="13.89" length="140.36" shape="-170.00,98.40 -29.64,98.40"/>
    </edge>
    <edge id="WO" from="wround" to="w" priority="-1">
        <lane id="WO_0" index="0" disallow="pedestrian" speed="13.89" length="140.36" shape="-29.64,104.80 -170.00,104.80"/>
        <lane id="WO_1" index="1" disallow="pedestrian" speed="13.89" length="140.36" shape="-29.64,101.60 -170.00,101.60"/>
    </edge>
    <edge id="WS" from="wround" to="sround" priority="-1" shape="-20.00,100.00 -19.33,91.17 -15.30,85.65 -9.64,81.24 0.00,80.00">
        <lane id="WS_0" index="0" disallow="pedestrian" speed="13.89" length="18.30" shape="-24.06,90.05 -24.01,89.44 -18.78,82.28 -11.55,76.65 -9.69,76.41"/>
        <lane id="WS_1" index="1" disallow="pedestrian" speed="13.89" length="18.30" shape="-20.72,90.36 -16.46,84.53 -10.28,79.71 -9.28,79.58"/>
    </edge>

    <junction id="e" type="dead_end" x="170.00" y="100.00" incLanes="EO_0 EO_1" intLanes="" shape="170.00,100.00 170.00,93.60 170.00,100.00" name="East"/>
    <junction id="eround" type="priority" x="20.00" y="100.00" incLanes="EI_0 EI_1 SE_0 SE_1" intLanes=":eround_0_0 :eround_0_1 :eround_2_0 :eround_3_0 :eround_6_0 :eround_5_0" shape="30.13,106.40 30.13,93.60 27.47,93.17 26.47,92.64 25.70,91.89 25.16,90.93 24.84,89.75 18.12,90.93 20.20,94.37 21.52,97.69 22.05,100.91 21.81,104.01 20.80,107.00 19.00,109.87 26.14,110.30 26.62,108.13 27.19,107.37 27.96,106.83 28.94,106.51" name="Roundabout_east">
        <request index="0" response="001000" foes="001000" cont="0"/>
        <request index="1" response="101000" foes="101000" cont="0"/>
        <request index="2" response="000000" foes="000000" cont="0"/>
        <request index="3" response="000000" foes="010011" cont="0"/>
        <request index="4" response="001000" foes="001000" cont="1"/>
        <request index="5" response="000000" foes="000010" cont="0"/>
    </junction>
    <junction id="n" type="dead_end" x="0.00" y="270.00" incLanes="NO_0 NO_1" intLanes="" shape="0.00,270.00 6.40,270.00 0.00,270.00" name=" North"/>
    <junction id="nround" type="priority" x="0.00" y="120.00" incLanes="NI_0 NI_1 EN_0 EN_1" intLanes=":nround_0_0 :nround_0_1 :nround_2_0 :nround_3_0 :nround_6_0 :nround_5_0" shape="-6.40,128.56 6.40,128.56 6.76,126.65 7.21,125.92 7.84,125.34 8.64,124.91 9.63,124.62 8.39,118.34 4.86,119.02 2.21,119.43 -0.01,119.56 -2.22,119.43 -4.87,119.03 -8.40,118.35 -9.63,124.64 -7.84,125.35 -7.21,125.93 -6.76,126.66 -6.49,127.54" name="Roundabout_north">
        <request index="0" response="001000" foes="001000" cont="0"/>
        <request index="1" response="101000" foes="101000" cont="0"/>
        <request index="2" response="000000" foes="000000" cont="0"/>
        <request index="3" response="000000" foes="010011" cont="0"/>
        <request index="4" response="001000" foes="001000" cont="1"/>
        <request index="5" response="000000" foes="000010" cont="0"/>
    </junction>
    <junction id="s" type="dead_end" x="0.00" y="-70.00" incLanes="SO_0 SO_1" intLanes="" shape="0.00,-70.00 -6.40,-70.00 0.00,-70.00" name="South"/>
    <junction id="sround" type="priority" x="0.00" y="80.00" incLanes="SI_0 SI_1 WS_0 WS_1" intLanes=":sround_0_0 :sround_0_1 :sround_2_0 :sround_3_0 :sround_6_0 :sround_5_0" shape="8.39,81.94 9.83,75.70 7.92,74.81 7.26,74.09 6.78,73.19 6.50,72.11 6.40,70.85 -6.40,70.85 -6.79,72.86 -7.27,73.60 -7.95,74.18 -8.82,74.58 -9.89,74.82 -9.07,81.17 -5.36,80.70 -2.59,80.43 -0.28,80.40 2.00,80.62 4.74,81.12" name="Roundabout_south">
        <request index="0" response="001000" foes="001000" cont="0"/>
        <request index="1" response="101000" foes="101000" cont="0"/>
        <request index="2" response="000000" foes="000000" cont="0"/>
        <request index="3" response="000000" foes="010011" cont="0"/>
        <request index="4" response="001000" foes="001000" cont="1"/>
        <request index="5" response="000000" foes="000010" cont="0"/>
    </junction>
    <junction id="w" type="dead_end" x="-170.00" y="100.00" incLanes="WO_0 WO_1" intLanes="" shape="-170.00,100.00 -170.00,106.40 -170.00,100.00" name="West"/>
    <junction id="wround" type="priority" x="-20.00" y="100.00" incLanes="NW_0 NW_1 WI_0 WI_1" intLanes=":wround_0_0 :wround_1_0 :wround_6_0 :wround_3_0 :wround_4_0 :wround_4_1" shape="-24.91,110.06 -18.39,109.00 -20.27,105.73 -21.42,102.53 -21.86,99.42 -21.58,96.38 -20.58,93.42 -18.87,90.54 -25.65,89.90 -26.22,91.96 -26.79,92.68 -27.55,93.19 -28.50,93.50 -29.64,93.60 -29.64,106.40 -27.27,106.81 -26.38,107.32 -25.69,108.03 -25.20,108.94" name="Roundabout_west">
        <request index="0" response="000000" foes="000000" cont="0"/>
        <request index="1" response="000000" foes="110100" cont="0"/>
        <request index="2" response="000010" foes="000010" cont="1"/>
        <request index="3" response="000000" foes="100000" cont="0"/>
        <request index="4" response="000010" foes="000010" cont="0"/>
        <request index="5" response="001010" foes="001010" cont="0"/>
    </junction>

    <junction id=":eround_6_0" type="internal" x="21.20" y="92.31" incLanes=":eround_4_0 SE_0" intLanes=":eround_3_0"/>
    <junction id=":nround_6_0" type="internal" x="5.31" y="121.21" incLanes=":nround_4_0 EN_0" intLanes=":nround_3_0"/>
    <junction id=":sround_6_0" type="internal" x="-5.68" y="78.49" incLanes=":sround_4_0 WS_0" intLanes=":sround_3_0"/>
    <junction id=":wround_6_0" type="internal" x="-21.20" y="107.87" incLanes=":wround_2_0 NW_0" intLanes=":wround_1_0"/>

    <connection from="EI" to="EN" fromLane="0" toLane="0" via=":eround_0_0" dir="r" state="m" visibility="9.00"/>
    <connection from="EI" to="EN" fromLane="1" toLane="1" via=":eround_0_1" dir="r" state="m" visibility="9.00"/>
    <connection from="EN" to="NO" fromLane="0" toLane="0" via=":nround_2_0" dir="r" state="M"/>
    <connection from="EN" to="NW" fromLane="0" toLane="0" via=":nround_3_0" dir="s" state="M"/>
    <connection from="EN" to="NO" fromLane="1" toLane="1" via=":nround_4_0" dir="r" state="m"/>
    <connection from="EN" to="NW" fromLane="1" toLane="1" via=":nround_5_0" dir="s" state="M"/>
    <connection from="NI" to="NW" fromLane="0" toLane="0" via=":nround_0_0" dir="r" state="m" visibility="9.00"/>
    <connection from="NI" to="NW" fromLane="1" toLane="1" via=":nround_0_1" dir="r" state="m" visibility="9.00"/>
    <connection from="NW" to="WO" fromLane="0" toLane="0" via=":wround_0_0" dir="r" state="M"/>
    <connection from="NW" to="WS" fromLane="0" toLane="0" via=":wround_1_0" dir="s" state="M"/>
    <connection from="NW" to="WO" fromLane="1" toLane="1" via=":wround_2_0" dir="r" state="m"/>
    <connection from="NW" to="WS" fromLane="1" toLane="1" via=":wround_3_0" dir="s" state="M"/>
    <connection from="SE" to="EO" fromLane="0" toLane="0" via=":eround_2_0" dir="r" state="M"/>
    <connection from="SE" to="EN" fromLane="0" toLane="0" via=":eround_3_0" dir="s" state="M"/>
    <connection from="SE" to="EO" fromLane="1" toLane="1" via=":eround_4_0" dir="r" state="m"/>
    <connection from="SE" to="EN" fromLane="1" toLane="1" via=":eround_5_0" dir="s" state="M"/>
    <connection from="SI" to="SE" fromLane="0" toLane="0" via=":sround_0_0" dir="r" state="m" visibility="9.00"/>
    <connection from="SI" to="SE" fromLane="1" toLane="1" via=":sround_0_1" dir="r" state="m" visibility="9.00"/>
    <connection from="WI" to="WS" fromLane="0" toLane="0" via=":wround_4_0" dir="r" state="m" visibility="9.00"/>
    <connection from="WI" to="WS" fromLane="1" toLane="1" via=":wround_4_1" dir="r" state="m" visibility="9.00"/>
    <connection from="WS" to="SO" fromLane="0" toLane="0" via=":sround_2_0" dir="r" state="M"/>
    <connection from="WS" to="SE" fromLane="0" toLane="0" via=":sround_3_0" dir="s" state="M"/>
    <connection from="WS" to="SO" fromLane="1" toLane="1" via=":sround_4_0" dir="r" state="m"/>
    <connection from="WS" to="SE" fromLane="1" toLane="1" via=":sround_5_0" dir="s" state="M"/>

    <connection from=":eround_0" to="EN" fromLane="0" toLane="0" dir="r" state="M"/>
    <connection from=":eround_0" to="EN" fromLane="1" toLane="1" dir="r" state="M"/>
    <connection from=":eround_2" to="EO" fromLane="0" toLane="0" dir="r" state="M"/>
    <connection from=":eround_3" to="EN" fromLane="0" toLane="0" dir="s" state="M"/>
    <connection from=":eround_4" to="EO" fromLane="0" toLane="1" via=":eround_6_0" dir="r" state="m"/>
    <connection from=":eround_6" to="EO" fromLane="0" toLane="1" dir="r" state="M"/>
    <connection from=":eround_5" to="EN" fromLane="0" toLane="1" dir="s" state="M"/>
    <connection from=":nround_0" to="NW" fromLane="0" toLane="0" dir="r" state="M"/>
    <connection from=":nround_0" to="NW" fromLane="1" toLane="1" dir="r" state="M"/>
    <connection from=":nround_2" to="NO" fromLane="0" toLane="0" dir="r" state="M"/>
    <connection from=":nround_3" to="NW" fromLane="0" toLane="0" dir="s" state="M"/>
    <connection from=":nround_4" to="NO" fromLane="0" toLane="1" via=":nround_6_0" dir="r" state="m"/>
    <connection from=":nround_6" to="NO" fromLane="0" toLane="1" dir="r" state="M"/>
    <connection from=":nround_5" to="NW" fromLane="0" toLane="1" dir="s" state="M"/>
    <connection from=":sround_0" to="SE" fromLane="0" toLane="0" dir="r" state="M"/>
    <connection from=":sround_0" to="SE" fromLane="1" toLane="1" dir="r" state="M"/>
    <connection from=":sround_2" to="SO" fromLane="0" toLane="0" dir="r" state="M"/>
    <connection from=":sround_3" to="SE" fromLane="0" toLane="0" dir="s" state="M"/>
    <connection from=":sround_4" to="SO" fromLane="0" toLane="1" via=":sround_6_0" dir="r" state="m"/>
    <connection from=":sround_6" to="SO" fromLane="0" toLane="1" dir="r" state="M"/>
    <connection from=":sround_5" to="SE" fromLane="0" toLane="1" dir="s" state="M"/>
    <connection from=":wround_0" to="WO" fromLane="0" toLane="0" dir="r" state="M"/>
    <connection from=":wround_1" to="WS" fromLane="0" toLane="0" dir="s" state="M"/>
    <connection from=":wround_2" to="WO" fromLane="0" toLane="1" via=":wround_6_0" dir="r" state="m"/>
    <connection from=":wround_6" to="WO" fromLane="0" toLane="1" dir="r" state="M"/>
    <connection from=":wround_3" to="WS" fromLane="0" toLane="1" dir="s" state="M"/>
    <connection from=":wround_4" to="WS" fromLane="0" toLane="0" dir="r" state="M"/>
    <connection from=":wround_4" to="WS" fromLane="1" toLane="1" dir="r" state="M"/>

    <roundabout nodes="eround nround sround wround" edges="EN NW SE WS"/>

</net>
