<?xml version="1.0" encoding="UTF-8"?>

<!-- generated on 2023-12-21 20:10:00 by Eclipse SUMO netedit Version 1.19.0
-->

<routes xmlns:xsi="http://www.w3.org/2001/XMLSchema-instance" xsi:noNamespaceSchemaLocation="http://sumo.dlr.de/xsd/routes_file.xsd">
    <!-- VTypes -->
    <vType id="C-VEH" color="red" lcCooperativeRoundabout="0" accel="5.0" decel="4.5"/>
    <vType id="CE-VEH" vClass="truck"/>
    <vType id="E-CDA" color="yellow" lcCooperativeRoundabout="0" accel="5.0" decel="4.5"/>
    <vType id="N-VEH" color="white"/>
    <vType id="T-CDA" color="0,156,255"/>


    <trip id="C_VEH" type="C-VEH" depart="0.00" departLane="0" from="SE" to="NO"/>
    <trip id="E_CDA" type="E-CDA" depart="0.00" departLane="0" from="EI" to="NO"/>
</routes>
