<?xml version="1.0" encoding="UTF-8"?>

<!-- generated on 2023-12-21 00:06:19 by Eclipse SUMO netedit Version 1.19.0
<configuration xmlns:xsi="http://www.w3.org/2001/XMLSchema-instance" xsi:noNamespaceSchemaLocation="http://sumo.dlr.de/xsd/neteditConfiguration.xsd">

    <input>
        <sumo-net-file value="/Users/parksik/Git/sumo/trunk/IntersectionOneWay_A_2.net.xml"/>
    </input>

    <output>
        <output-file value="/Users/parksik/Git/sumo/trunk/IntersectionOneWay_A_2.net.xml"/>
    </output>

    <processing>
        <geometry.min-radius.fix.railways value="false"/>
        <geometry.max-grade.fix value="false"/>
        <offset.disable-normalization value="true"/>
        <lefthand value="0"/>
    </processing>

    <junctions>
        <no-internal-links value="true"/>
        <no-turnarounds value="true"/>
        <junctions.corner-detail value="5"/>
        <junctions.limit-turn-speed value="5.50"/>
        <rectangular-lane-cut value="0"/>
    </junctions>

    <pedestrian>
        <walkingareas value="0"/>
    </pedestrian>

    <netedit>
        <new-network value="false"/>
    </netedit>

</configuration>
-->

<net version="1.16" junctionCornerDetail="5" limitTurnSpeed="5.50" xmlns:xsi="http://www.w3.org/2001/XMLSchema-instance" xsi:noNamespaceSchemaLocation="http://sumo.dlr.de/xsd/net_file.xsd">

    <location netOffset="0.00,0.00" convBoundary="-27.85,73.48,282.65,165.41" origBoundary="-10000000000.00,-10000000000.00,10000000000.00,10000000000.00" projParameter="!"/>

    <edge id="E0to1" from="J0" to="J1" priority="-1">
        <lane id="E0to1_0" index="0" speed="27.78" length="34.24" shape="-27.85,71.96 6.23,71.88"/>
    </edge>
    <edge id="E1to0" from="J1" to="J0" priority="-1">
        <lane id="E1to0_0" index="0" speed="27.78" length="34.24" shape="6.25,78.28 -27.84,78.36"/>
        <lane id="E1to0_1" index="1" speed="27.78" length="34.24" shape="6.24,75.08 -27.85,75.16"/>
    </edge>
    <edge id="E1to2" from="J1" to="J2" priority="-1">
        <lane id="E1to2_0" index="0" speed="27.78" length="130.46" shape="6.55,71.88 128.89,72.23"/>
    </edge>
    <edge id="E2to1" from="J2" to="J1" priority="-1">
        <lane id="E2to1_0" index="0" speed="27.78" length="130.46" shape="128.87,78.63 6.53,78.28"/>
        <lane id="E2to1_1" index="1" speed="27.78" length="130.46" shape="128.88,75.43 6.54,75.08"/>
    </edge>
    <edge id="E2to3" from="J2" to="J3" priority="-1">
        <lane id="E2to3_0" index="0" speed="27.78" length="117.05" shape="137.25,72.23 247.69,72.36"/>
    </edge>
    <edge id="E3to2" from="J3" to="J2" priority="-1">
        <lane id="E3to2_0" index="0" speed="27.78" length="117.05" shape="247.68,78.76 137.25,78.63"/>
        <lane id="E3to2_1" index="1" speed="27.78" length="117.05" shape="247.68,75.56 137.25,75.43"/>
    </edge>
    <edge id="E3to4" from="J3" to="J4" priority="-1">
        <lane id="E3to4_0" index="0" speed="27.78" length="34.82" shape="247.97,72.36 282.64,72.21"/>
    </edge>
    <edge id="E4to3" from="J4" to="J3" priority="-1">
        <lane id="E4to3_0" index="0" speed="27.78" length="34.82" shape="282.67,78.61 248.00,78.76"/>
        <lane id="E4to3_1" index="1" speed="27.78" length="34.82" shape="282.66,75.41 247.98,75.56"/>
    </edge>
    <edge id="E5to6" from="J5" to="J6" priority="-1">
        <lane id="E5to6_0" index="0" speed="27.78" length="24.75" shape="250.57,166.71 230.57,152.37"/>
    </edge>
    <edge id="E6to2" from="J6" to="J2" priority="-1">
        <lane id="E6to2_0" index="0" speed="27.78" length="120.48" shape="230.33,152.20 136.00,82.41"/>
    </edge>

    <junction id="J0" type="dead_end" x="-27.85" y="73.56" incLanes="E1to0_0 E1to0_1" intLanes="" shape="-27.85,73.56 -27.84,79.96 -27.85,73.56"/>
    <junction id="J1" type="unregulated" x="6.39" y="73.48" incLanes="E2to1_0 E2to1_1 E0to1_0" intLanes="" shape="6.53,79.88 6.55,70.28 6.23,70.28 6.25,79.88">
        <request index="0" response="000" foes="000"/>
        <request index="1" response="000" foes="000"/>
        <request index="2" response="000" foes="000"/>
    </junction>
    <junction id="J2" type="unregulated" x="127.08" y="73.82" incLanes="E6to2_0 E3to2_0 E3to2_1 E1to2_0" intLanes="" shape="135.05,83.69 136.95,81.12 136.45,80.63 136.42,80.45 136.55,80.33 136.82,80.26 137.24,80.23 137.26,70.63 128.89,70.63 128.86,80.23 131.41,80.66 132.22,81.17 132.96,81.86 133.85,82.71"/>
    <junction id="J3" type="unregulated" x="247.83" y="73.96" incLanes="E4to3_0 E4to3_1 E2to3_0" intLanes="" shape="248.00,80.36 247.96,70.76 247.69,70.76 247.68,80.36">
        <request index="0" response="000" foes="000"/>
        <request index="1" response="000" foes="000"/>
        <request index="2" response="000" foes="000"/>
    </junction>
    <junction id="J4" type="dead_end" x="282.65" y="73.81" incLanes="E3to4_0" intLanes="" shape="282.65,73.81 282.64,70.61 282.65,73.81"/>
    <junction id="J5" type="dead_end" x="251.50" y="165.41" incLanes="" intLanes="" shape="251.50,165.41 249.64,168.01"/>
    <junction id="J6" type="unregulated" x="231.39" y="150.99" incLanes="E5to6_0" intLanes="" shape="229.63,153.67 231.50,151.07 231.28,150.91 229.38,153.48">
        <request index="0" response="0" foes="0"/>
    </junction>

    <connection from="E0to1" to="E1to2" fromLane="0" toLane="0" dir="s" state="M"/>
    <connection from="E1to2" to="E2to3" fromLane="0" toLane="0" dir="s" state="M"/>
    <connection from="E2to1" to="E1to0" fromLane="0" toLane="0" dir="s" state="M"/>
    <connection from="E2to1" to="E1to0" fromLane="1" toLane="1" dir="s" state="M"/>
    <connection from="E2to3" to="E3to4" fromLane="0" toLane="0" dir="s" state="M"/>
    <connection from="E3to2" to="E2to1" fromLane="0" toLane="0" dir="s" state="M"/>
    <connection from="E3to2" to="E2to1" fromLane="1" toLane="1" dir="s" state="M"/>
    <connection from="E4to3" to="E3to2" fromLane="0" toLane="0" dir="s" state="M"/>
    <connection from="E4to3" to="E3to2" fromLane="1" toLane="1" dir="s" state="M"/>
    <connection from="E5to6" to="E6to2" fromLane="0" toLane="0" dir="s" state="M"/>
    <connection from="E6to2" to="E2to1" fromLane="0" toLane="0" dir="s" state="M"/>

</net>
