<polygons>
    <poly id="antenna_area_400" color="1,0,0" shape="410.0,10.0 403.9231012048832,79.45927106677213 385.8770483143634,146.80805733026747 356.4101615137755,209.99999999999997 316.41777724759123,267.1150438746157 267.11504387461576,316.41777724759123 210.00000000000006,356.41016151377545 146.80805733026753,385.8770483143633 79.45927106677216,403.9231012048832 10.000000000000025,410.0 -59.45927106677212,403.9231012048832 -126.80805733026739,385.8770483143634 -189.99999999999991,356.4101615137755 -247.11504387461576,316.41777724759123 -296.4177772475912,267.11504387461576 -336.4101615137754,210.00000000000014 -365.8770483143633,146.80805733026756 -383.9231012048832,79.4592710667721 -390.0,10.00000000000005 -383.92310120488327,-59.459271066772004 -365.8770483143634,-126.80805733026747 -336.41016151377545,-190.00000000000006 -296.41777724759135,-247.1150438746156 -247.11504387461576,-296.4177772475912 -190.00000000000017,-336.41016151377534 -126.80805733026742,-365.8770483143634 -59.45927106677213,-383.9231012048832 9.999999999999927,-390.0 79.45927106677199,-383.92310120488327 146.8080573302676,-365.8770483143633 209.99999999999974,-336.4101615137756 267.1150438746157,-296.41777724759123 316.4177772475911,-247.11504387461582 356.4101615137755,-189.99999999999986 385.8770483143634,-126.80805733026745 403.9231012048832,-59.45927106677216 410.0,10.0"/>
</polygons>