<polygons>
    <poly id="antenna_area_100" color="1,0,0" shape="110.0,10.0 108.4807753012208,27.364817766693033 103.96926207859084,44.20201433256687 96.60254037844388,59.99999999999999 86.60444431189781,74.27876096865393 74.27876096865394,86.60444431189781 60.000000000000014,96.60254037844386 44.20201433256688,103.96926207859083 27.36481776669304,108.4807753012208 10.000000000000005,110.0 -7.3648177666930295,108.4807753012208 -24.202014332566847,103.96926207859084 -39.99999999999998,96.60254037844388 -54.27876096865394,86.60444431189781 -66.6044443118978,74.27876096865394 -76.60254037844385,60.000000000000036 -83.96926207859083,44.20201433256689 -88.4807753012208,27.364817766693026 -90.0,10.000000000000012 -88.48077530122082,-7.364817766693001 -83.96926207859084,-24.20201433256687 -76.60254037844386,-40.000000000000014 -66.60444431189784,-54.2787609686539 -54.27876096865394,-66.6044443118978 -40.00000000000004,-76.60254037844383 -24.202014332566854,-83.96926207859084 -7.364817766693033,-88.4807753012208 9.999999999999982,-90.0 27.364817766692997,-88.48077530122082 44.2020143325669,-83.96926207859083 59.999999999999936,-76.6025403784439 74.27876096865393,-66.60444431189781 86.60444431189778,-54.278760968653955 96.60254037844388,-39.999999999999964 103.96926207859084,-24.20201433256686 108.4807753012208,-7.36481776669304 110.0,10.0"/>
</polygons>