<polygons>
    <poly id="antenna_area_500" color="1,0,0" shape="510.0,10.0 502.403876506104,96.82408883346517 479.8463103929542,181.01007166283435 443.01270189221935,260.0 393.022221559489,331.3938048432696 331.39380484326966,393.022221559489 260.00000000000006,443.0127018922193 181.0100716628344,479.84631039295414 96.82408883346521,502.403876506104 10.00000000000003,510.0 -76.82408883346515,502.403876506104 -161.01007166283424,479.8463103929542 -239.9999999999999,443.01270189221935 -311.39380484326966,393.022221559489 -373.02222155948897,331.3938048432697 -423.01270189221924,260.00000000000017 -459.84631039295414,181.01007166283443 -482.403876506104,96.82408883346514 -490.0,10.00000000000006 -482.40387650610404,-76.82408883346501 -459.8463103929542,-161.01007166283432 -423.0127018922193,-240.00000000000006 -373.0222215594892,-311.39380484326944 -311.3938048432697,-373.02222155948897 -240.00000000000023,-423.0127018922192 -161.01007166283426,-459.8463103929542 -76.82408883346517,-482.403876506104 9.999999999999908,-490.0 96.82408883346498,-482.40387650610404 181.0100716628345,-459.84631039295414 259.99999999999966,-423.0127018922195 331.3938048432696,-373.0222215594891 393.0222215594889,-311.3938048432698 443.0127018922194,-239.99999999999983 479.8463103929542,-161.0100716628343 502.403876506104,-76.8240888334652 510.0,10.0"/>
</polygons>