<polygons>
    <poly id="antenna_area_300" color="1,0,0" shape="310.0,10.0 305.4423259036624,62.0944533000791 291.9077862357725,112.60604299770061 269.8076211353316,159.99999999999997 239.8133329356934,202.83628290596178 202.8362829059618,239.8133329356934 160.00000000000003,269.8076211353316 112.60604299770064,291.9077862357725 62.094453300079124,305.4423259036624 10.000000000000018,310.0 -42.09445330007909,305.4423259036624 -92.60604299770054,291.9077862357725 -139.99999999999994,269.8076211353316 -182.8362829059618,239.8133329356934 -219.81333293569338,202.83628290596184 -249.80762113533154,160.0000000000001 -271.9077862357725,112.60604299770067 -285.4423259036624,62.09445330007908 -290.0,10.000000000000037 -285.44232590366244,-42.09445330007901 -271.9077862357725,-92.6060429977006 -249.8076211353316,-140.00000000000003 -219.8133329356935,-182.83628290596167 -182.83628290596184,-219.81333293569338 -140.00000000000014,-249.8076211353315 -92.60604299770057,-271.9077862357725 -42.0944533000791,-285.4423259036624 9.999999999999945,-290.0 62.09445330007899,-285.44232590366244 112.6060429977007,-271.9077862357725 159.9999999999998,-249.80762113533171 202.83628290596178,-219.81333293569344 239.81333293569332,-182.83628290596187 269.80762113533166,-139.9999999999999 291.9077862357725,-92.60604299770058 305.4423259036624,-42.09445330007912 310.0,10.0"/>
</polygons>