<polygons>
    <poly id="antenna_area_50" color="1,0,0" shape="60.0,10.0 59.2403876506104,18.68240888334652 56.98463103929542,27.101007166283434 53.30127018922194,35.0 48.302222155948904,42.13938048432696 42.13938048432697,48.302222155948904 35.00000000000001,53.30127018922193 27.10100716628344,56.984631039295415 18.68240888334652,59.2403876506104 10.000000000000004,60.0 1.3175911166534853,59.2403876506104 -7.1010071662834235,56.98463103929542 -14.99999999999999,53.30127018922194 -22.13938048432697,48.302222155948904 -28.302222155948897,42.13938048432697 -33.301270189221924,35.000000000000014 -36.984631039295415,27.101007166283445 -39.2403876506104,18.68240888334651 -40.0,10.000000000000005 -39.24038765061041,1.3175911166534995 -36.98463103929542,-7.101007166283434 -33.30127018922193,-15.000000000000007 -28.302222155948918,-22.13938048432695 -22.13938048432697,-28.302222155948897 -15.000000000000021,-33.30127018922192 -7.101007166283427,-36.98463103929542 1.3175911166534835,-39.2403876506104 9.999999999999991,-40.0 18.682408883346497,-39.24038765061041 27.10100716628345,-36.984631039295415 34.99999999999997,-33.30127018922195 42.13938048432696,-28.302222155948904 48.30222215594889,-22.139380484326978 53.30127018922194,-14.999999999999982 56.98463103929542,-7.101007166283431 59.2403876506104,1.31759111665348 60.0,10.0"/>
</polygons>