<polygons>
    <poly id="antenna_area_200" color="1,0,0" shape="210.0,10.0 206.9615506024416,44.729635533386066 197.9385241571817,78.40402866513374 183.20508075688775,109.99999999999999 163.20888862379562,138.55752193730785 138.55752193730788,163.20888862379562 110.00000000000003,183.20508075688772 78.40402866513377,197.93852415718166 44.72963553338608,206.9615506024416 10.000000000000012,210.0 -24.72963553338606,206.9615506024416 -58.404028665133694,197.9385241571817 -89.99999999999996,183.20508075688775 -118.55752193730788,163.20888862379562 -143.2088886237956,138.55752193730788 -163.2050807568877,110.00000000000007 -177.93852415718166,78.40402866513378 -186.9615506024416,44.72963553338605 -190.0,10.000000000000025 -186.96155060244163,-24.729635533386002 -177.9385241571817,-58.40402866513374 -163.20508075688772,-90.00000000000003 -143.20888862379567,-118.5575219373078 -118.55752193730788,-143.2088886237956 -90.00000000000009,-163.20508075688767 -58.40402866513371,-177.9385241571817 -24.729635533386066,-186.9615506024416 9.999999999999963,-190.0 44.729635533385995,-186.96155060244163 78.4040286651338,-177.93852415718166 109.99999999999987,-163.2050807568878 138.55752193730785,-143.20888862379562 163.20888862379556,-118.55752193730791 183.20508075688775,-89.99999999999993 197.9385241571817,-58.40402866513372 206.9615506024416,-24.72963553338608 210.0,10.0"/>
</polygons>