<polygons>
    <poly id="antenna_area_100" color="1,0,0" shape="625.0,525.0 623.4807753012208,542.364817766693 618.9692620785909,559.2020143325668 611.6025403784439,575.0 601.6044443118979,589.278760968654 589.278760968654,601.6044443118979 575.0,611.6025403784439 559.2020143325669,618.9692620785909 542.364817766693,623.4807753012208 525.0,625.0 507.635182233307,623.4807753012208 490.7979856674332,618.9692620785909 475.0,611.6025403784439 460.72123903134604,601.6044443118979 448.3955556881022,589.278760968654 438.39745962155615,575.0 431.0307379214092,559.2020143325669 426.5192246987792,542.364817766693 425.0,525.0 426.51922469877917,507.635182233307 431.0307379214091,490.7979856674331 438.39745962155615,475.0 448.39555568810215,460.7212390313461 460.72123903134604,448.3955556881022 474.99999999999994,438.39745962155615 490.7979856674331,431.0307379214091 507.635182233307,426.5192246987792 525.0,425.0 542.364817766693,426.51922469877917 559.2020143325669,431.0307379214092 574.9999999999999,438.3974596215561 589.278760968654,448.3955556881022 601.6044443118977,460.72123903134604 611.6025403784439,475.00000000000006 618.9692620785909,490.7979856674331 623.4807753012208,507.635182233307 625.0,525.0"/>
</polygons>