<polygons>
    <poly id="antenna_area_50" color="1,0,0" shape="575.0,525.0 574.2403876506104,533.6824088833465 571.9846310392954,542.1010071662835 568.3012701892219,550.0 563.3022221559489,557.1393804843269 557.1393804843269,563.3022221559489 550.0,568.3012701892219 542.1010071662835,571.9846310392954 533.6824088833465,574.2403876506104 525.0,575.0 516.3175911166535,574.2403876506104 507.8989928337166,571.9846310392954 500.0,568.3012701892219 492.860619515673,563.3022221559489 486.6977778440511,557.1393804843269 481.6987298107781,550.0 478.01536896070456,542.1010071662835 475.7596123493896,533.6824088833465 475.0,525.0 475.7596123493896,516.3175911166535 478.01536896070456,507.8989928337166 481.69872981077805,500.0 486.6977778440511,492.8606195156731 492.860619515673,486.6977778440511 500.0,481.6987298107781 507.8989928337166,478.01536896070456 516.3175911166535,475.7596123493896 525.0,475.0 533.6824088833465,475.7596123493896 542.1010071662835,478.01536896070456 550.0,481.69872981077805 557.1393804843269,486.6977778440511 563.3022221559489,492.860619515673 568.3012701892219,500.0 571.9846310392954,507.8989928337166 574.2403876506104,516.3175911166535 575.0,525.0"/>
</polygons>