<polygons>
    <poly id="antenna_area_400" color="1,0,0" shape="925.0,525.0 918.9231012048832,594.4592710667721 900.8770483143634,661.8080573302675 871.4101615137755,725.0 831.4177772475912,782.1150438746157 782.1150438746158,831.4177772475912 725.0,871.4101615137754 661.8080573302675,900.8770483143633 594.4592710667722,918.9231012048832 525.0,925.0 455.5407289332279,918.9231012048832 388.1919426697326,900.8770483143634 325.0000000000001,871.4101615137755 267.88495612538424,831.4177772475912 218.58222275240882,782.1150438746158 178.5898384862246,725.0000000000001 149.12295168563668,661.8080573302675 131.0768987951168,594.4592710667721 125.0,525.0 131.07689879511673,455.540728933228 149.12295168563662,388.1919426697325 178.58983848622455,324.99999999999994 218.58222275240865,267.8849561253844 267.88495612538424,218.58222275240882 324.99999999999983,178.58983848622466 388.1919426697326,149.12295168563662 455.54072893322785,131.0768987951168 524.9999999999999,125.0 594.459271066772,131.07689879511673 661.8080573302676,149.12295168563668 724.9999999999998,178.58983848622438 782.1150438746157,218.58222275240877 831.4177772475912,267.8849561253842 871.4101615137755,325.0000000000001 900.8770483143634,388.19194266973255 918.9231012048832,455.54072893322785 925.0,525.0"/>
</polygons>