<additional>
    <!-- <device.rsu id="rsu1" lane="eround_3" pos="10" freq="10" range="200" showRange="true"/> -->
    <poi id="poi1" x="0.0" y="0.0" color="1,0,0" layer="-1" size="500"/>
    <!-- <polygon id="poi_range" color="1,0,0">
        <point x = "100" y="100"/>
        <point x = "150" y="100"/>
        <point x = "150" y="150"/>
        <point x = "100" y="150"/>
    </polygon> -->
    <!-- <circle id="rsu_range" x="0.0" y="0.0" radius="100.0" color="0,0,1" layer="1"/> -->
</additional>