<?xml version="1.0" encoding="UTF-8"?>

<configuration xmlns:xsi="http://www.w3.org/2001/XMLSchema-instance" xsi:noNamespaceSchemaLocation="http://sumo.dlr.de/xsd/sumoConfiguration.xsd">
    <input>
        <net-file value="../net/RoundaboutNormal.net.xml"/>
        <route-files value="../rou/Roundabout.rou.xml"/>
        <gui-settings-file value="../settings/Roundabout.settings.xml"/>
    </input>
</configuration>
