<polygons>
    <poly id="antenna_area_700" color="1,0,0" shape="700.0,0.0 689.3654271085456,121.55372436685123 657.7848345501359,239.4141003279681 606.2177826491071,349.99999999999994 536.2311101832846,449.95132678057746 449.9513267805776,536.2311101832846 350.00000000000006,606.217782649107 239.41410032796819,657.7848345501358 121.55372436685128,689.3654271085456 4.2862637970157365e-14,700.0 -121.55372436685121,689.3654271085456 -239.41410032796793,657.7848345501359 -349.99999999999983,606.2177826491071 -449.9513267805776,536.2311101832846 -536.2311101832845,449.95132678057763 -606.217782649107,350.0000000000002 -657.7848345501358,239.4141003279682 -689.3654271085456,121.5537243668512 -700.0,8.572527594031473e-14 -689.3654271085456,-121.55372436685101 -657.7848345501359,-239.41410032796807 -606.217782649107,-350.00000000000006 -536.2311101832848,-449.95132678057723 -449.95132678057763,-536.2311101832845 -350.0000000000003,-606.2177826491069 -239.414100327968,-657.7848345501359 -121.55372436685123,-689.3654271085456 -1.2858791391047208e-13,-700.0 121.55372436685099,-689.3654271085456 239.4141003279683,-657.7848345501358 349.99999999999955,-606.2177826491073 449.95132678057746,-536.2311101832847 536.2311101832845,-449.9513267805777 606.2177826491072,-349.9999999999998 657.7848345501359,-239.41410032796801 689.3654271085456,-121.55372436685127 700.0,0.0"/>
</polygons>