<polygons>
    <poly id="antenna_area_100" color="1,0,0" shape="100.0,0.0 98.4807753012208,17.364817766693033 93.96926207859084,34.20201433256687 86.60254037844388,49.99999999999999 76.60444431189781,64.27876096865393 64.27876096865394,76.60444431189781 50.000000000000014,86.60254037844386 34.20201433256688,93.96926207859083 17.36481776669304,98.4807753012208 6.123233995736766e-15,100.0 -17.36481776669303,98.4807753012208 -34.20201433256685,93.96926207859084 -49.99999999999998,86.60254037844388 -64.27876096865394,76.60444431189781 -76.6044443118978,64.27876096865394 -86.60254037844385,50.000000000000036 -93.96926207859083,34.20201433256689 -98.4807753012208,17.364817766693026 -100.0,1.2246467991473532e-14 -98.48077530122082,-17.364817766693 -93.96926207859084,-34.20201433256687 -86.60254037844386,-50.000000000000014 -76.60444431189784,-64.2787609686539 -64.27876096865394,-76.6044443118978 -50.00000000000004,-86.60254037844383 -34.202014332566854,-93.96926207859084 -17.364817766693033,-98.4807753012208 -1.8369701987210297e-14,-100.0 17.364817766692997,-98.48077530122082 34.2020143325669,-93.96926207859083 49.999999999999936,-86.6025403784439 64.27876096865393,-76.60444431189781 76.60444431189778,-64.27876096865396 86.60254037844388,-49.999999999999964 93.96926207859084,-34.20201433256686 98.4807753012208,-17.36481776669304 100.0,0.0"/>
</polygons>