<polygons>
    <poly id="antenna_area_600" color="1,0,0" shape="600.0,0.0 590.8846518073248,104.1889066001582 563.815572471545,205.21208599540122 519.6152422706632,299.99999999999994 459.6266658713868,385.67256581192356 385.6725658119236,459.6266658713868 300.00000000000006,519.6152422706632 205.21208599540128,563.815572471545 104.18890660015825,590.8846518073248 3.6739403974420595e-14,600.0 -104.18890660015818,590.8846518073248 -205.21208599540108,563.815572471545 -299.9999999999999,519.6152422706632 -385.6725658119236,459.6266658713868 -459.62666587138676,385.6725658119237 -519.6152422706631,300.0000000000002 -563.815572471545,205.21208599540134 -590.8846518073248,104.18890660015816 -600.0,7.347880794884119e-14 -590.8846518073249,-104.18890660015802 -563.815572471545,-205.2120859954012 -519.6152422706632,-300.00000000000006 -459.626665871387,-385.67256581192333 -385.6725658119237,-459.62666587138676 -300.0000000000003,-519.615242270663 -205.21208599540114,-563.815572471545 -104.1889066001582,-590.8846518073248 -1.1021821192326178e-13,-600.0 104.18890660015798,-590.8846518073249 205.2120859954014,-563.815572471545 299.9999999999996,-519.6152422706634 385.67256581192356,-459.6266658713869 459.62666587138665,-385.67256581192373 519.6152422706633,-299.9999999999998 563.815572471545,-205.21208599540117 590.8846518073248,-104.18890660015823 600.0,0.0"/>
</polygons>