<polygons>
    <poly id="antenna_area_800" color="1,0,0" shape="800.0,0.0 787.8462024097664,138.91854213354426 751.7540966287268,273.61611466053495 692.820323027551,399.99999999999994 612.8355544951825,514.2300877492314 514.2300877492315,612.8355544951825 400.0000000000001,692.8203230275509 273.61611466053506,751.7540966287266 138.91854213354432,787.8462024097664 4.898587196589413e-14,800.0 -138.91854213354424,787.8462024097664 -273.6161146605348,751.7540966287268 -399.99999999999983,692.820323027551 -514.2300877492315,612.8355544951825 -612.8355544951824,514.2300877492315 -692.8203230275508,400.0000000000003 -751.7540966287266,273.6161146605351 -787.8462024097664,138.9185421335442 -800.0,9.797174393178826e-14 -787.8462024097665,-138.918542133544 -751.7540966287268,-273.61611466053495 -692.8203230275509,-400.0000000000001 -612.8355544951827,-514.2300877492312 -514.2300877492315,-612.8355544951824 -400.00000000000034,-692.8203230275507 -273.61611466053483,-751.7540966287268 -138.91854213354426,-787.8462024097664 -1.4695761589768238e-13,-800.0 138.91854213354398,-787.8462024097665 273.6161146605352,-751.7540966287266 399.9999999999995,-692.8203230275512 514.2300877492314,-612.8355544951825 612.8355544951822,-514.2300877492316 692.820323027551,-399.9999999999997 751.7540966287268,-273.6161146605349 787.8462024097664,-138.91854213354432 800.0,0.0"/>
</polygons>