<polygons>
    <poly id="antenna_area_500" color="1,0,0" shape="500.0,0.0 492.403876506104,86.82408883346517 469.8463103929542,171.01007166283435 433.01270189221935,249.99999999999997 383.022221559489,321.3938048432696 321.39380484326966,383.022221559489 250.00000000000006,433.0127018922193 171.0100716628344,469.84631039295414 86.82408883346521,492.403876506104 3.061616997868383e-14,500.0 -86.82408883346515,492.403876506104 -171.01007166283424,469.8463103929542 -249.9999999999999,433.01270189221935 -321.39380484326966,383.022221559489 -383.02222155948897,321.3938048432697 -433.01270189221924,250.00000000000017 -469.84631039295414,171.01007166283443 -492.403876506104,86.82408883346514 -500.0,6.123233995736766e-14 -492.40387650610404,-86.82408883346501 -469.8463103929542,-171.01007166283432 -433.0127018922193,-250.00000000000006 -383.0222215594892,-321.39380484326944 -321.3938048432697,-383.02222155948897 -250.00000000000023,-433.0127018922192 -171.01007166283426,-469.8463103929542 -86.82408883346517,-492.403876506104 -9.184850993605149e-14,-500.0 86.82408883346498,-492.40387650610404 171.0100716628345,-469.84631039295414 249.99999999999966,-433.0127018922195 321.3938048432696,-383.0222215594891 383.0222215594889,-321.3938048432698 433.0127018922194,-249.99999999999983 469.8463103929542,-171.0100716628343 492.403876506104,-86.8240888334652 500.0,0.0"/>
</polygons>