<polygons>
    <poly id="antenna_area_300" color="1,0,0" shape="300.0,0.0 295.4423259036624,52.0944533000791 281.9077862357725,102.60604299770061 259.8076211353316,149.99999999999997 229.8133329356934,192.83628290596178 192.8362829059618,229.8133329356934 150.00000000000003,259.8076211353316 102.60604299770064,281.9077862357725 52.094453300079124,295.4423259036624 1.8369701987210297e-14,300.0 -52.09445330007909,295.4423259036624 -102.60604299770054,281.9077862357725 -149.99999999999994,259.8076211353316 -192.8362829059618,229.8133329356934 -229.81333293569338,192.83628290596184 -259.80762113533154,150.0000000000001 -281.9077862357725,102.60604299770067 -295.4423259036624,52.09445330007908 -300.0,3.6739403974420595e-14 -295.44232590366244,-52.09445330007901 -281.9077862357725,-102.6060429977006 -259.8076211353316,-150.00000000000003 -229.8133329356935,-192.83628290596167 -192.83628290596184,-229.81333293569338 -150.00000000000014,-259.8076211353315 -102.60604299770057,-281.9077862357725 -52.0944533000791,-295.4423259036624 -5.510910596163089e-14,-300.0 52.09445330007899,-295.44232590366244 102.6060429977007,-281.9077862357725 149.9999999999998,-259.8076211353317 192.83628290596178,-229.81333293569344 229.81333293569332,-192.83628290596187 259.80762113533166,-149.9999999999999 281.9077862357725,-102.60604299770058 295.4423259036624,-52.09445330007912 300.0,0.0"/>
</polygons>