<polygons>
    <poly id="antenna_area_200" color="1,0,0" shape="200.0,0.0 196.9615506024416,34.729635533386066 187.9385241571817,68.40402866513374 173.20508075688775,99.99999999999999 153.20888862379562,128.55752193730785 128.55752193730788,153.20888862379562 100.00000000000003,173.20508075688772 68.40402866513377,187.93852415718166 34.72963553338608,196.9615506024416 1.2246467991473532e-14,200.0 -34.72963553338606,196.9615506024416 -68.4040286651337,187.9385241571817 -99.99999999999996,173.20508075688775 -128.55752193730788,153.20888862379562 -153.2088886237956,128.55752193730788 -173.2050807568877,100.00000000000007 -187.93852415718166,68.40402866513378 -196.9615506024416,34.72963553338605 -200.0,2.4492935982947064e-14 -196.96155060244163,-34.729635533386 -187.9385241571817,-68.40402866513374 -173.20508075688772,-100.00000000000003 -153.20888862379567,-128.5575219373078 -128.55752193730788,-153.2088886237956 -100.00000000000009,-173.20508075688767 -68.40402866513371,-187.9385241571817 -34.729635533386066,-196.9615506024416 -3.6739403974420595e-14,-200.0 34.729635533385995,-196.96155060244163 68.4040286651338,-187.93852415718166 99.99999999999987,-173.2050807568878 128.55752193730785,-153.20888862379562 153.20888862379556,-128.5575219373079 173.20508075688775,-99.99999999999993 187.9385241571817,-68.40402866513372 196.9615506024416,-34.72963553338608 200.0,0.0"/>
</polygons>