<polygons>
    <poly id="antenna_area_400" color="1,0,0" shape="400.0,0.0 393.9231012048832,69.45927106677213 375.8770483143634,136.80805733026747 346.4101615137755,199.99999999999997 306.41777724759123,257.1150438746157 257.11504387461576,306.41777724759123 200.00000000000006,346.41016151377545 136.80805733026753,375.8770483143633 69.45927106677216,393.9231012048832 2.4492935982947064e-14,400.0 -69.45927106677212,393.9231012048832 -136.8080573302674,375.8770483143634 -199.99999999999991,346.4101615137755 -257.11504387461576,306.41777724759123 -306.4177772475912,257.11504387461576 -346.4101615137754,200.00000000000014 -375.8770483143633,136.80805733026756 -393.9231012048832,69.4592710667721 -400.0,4.898587196589413e-14 -393.92310120488327,-69.459271066772 -375.8770483143634,-136.80805733026747 -346.41016151377545,-200.00000000000006 -306.41777724759135,-257.1150438746156 -257.11504387461576,-306.4177772475912 -200.00000000000017,-346.41016151377534 -136.80805733026742,-375.8770483143634 -69.45927106677213,-393.9231012048832 -7.347880794884119e-14,-400.0 69.45927106677199,-393.92310120488327 136.8080573302676,-375.8770483143633 199.99999999999974,-346.4101615137756 257.1150438746157,-306.41777724759123 306.4177772475911,-257.1150438746158 346.4101615137755,-199.99999999999986 375.8770483143634,-136.80805733026745 393.9231012048832,-69.45927106677216 400.0,0.0"/>
</polygons>