<?xml version="1.0" encoding="UTF-8"?>

<routes xmlns:xsi="http://www.w3.org/2001/XMLSchema-instance" xsi:noNamespaceSchemaLocation="http://sumo.dlr.de/xsd/routes_file.xsd">
    <!-- VTypes -->
    <!--
    <vType id="C-VEH" color="white" lcCooperativeRoundabout="0" accel="5.0" decel="4.5" carFollowModel="ACC"/>
    <vType id="CE-VEH" vClass="truck" color="red" carFollowModel="ACC"/>
    <vType id="E-CDA" color="yellow" lcCooperativeRoundabout="0" accel="5.0" decel="4.5" carFollowModel="ACC"/>
    <vType id="N-VEH" color="white" carFollowModel="ACC"/>
    <vType id="T-CDA" color="0,156,255" carFollowModel="ACC"/>
    -->

    <!-- Define a Vehicle Type using the CACC model -->
    <vType id="C-VEH" accel="2.6" decel="5.0" sigma="0.5" length="4.5" maxSpeed="23.00" color="white" carFollowModel="CACC" tau="2.0" minGap="5"/>
    <vType id="CE-VEH" accel="2.6" decel="5.0" sigma="0.5" length="7.5" maxSpeed="50.00" color="red" carFollowModel="CACC" tau="2.0" speedFactor="1.5"/>
    <!-- <vType id="CE-VEH" vClass="emergency" accel="2.6" decel="4.5" sigma="0.5" length="7.5" maxSpeed="50.00" color="red" carFollowModel="CACC" tau="2.0">
        <param key="has.bluelight.device" value="true"/>
    </vType> -->
    <vType id="E-CDA" accel="2.6" decel="4.5" sigma="0.5" length="4.5" maxSpeed="23.00" color="yellow" carFollowModel="CACC" tau="2.0"/>
    <vType id="N-VEH" accel="2.6" decel="4.5" sigma="0.5" length="4.5" maxSpeed="23.00" color="black" carFollowModel="CACC" tau="2.0"/>
    <vType id="T-CDA" accel="2.6" decel="4.5" sigma="0.5" length="4.5" maxSpeed="23.00" color="blue" carFollowModel="CACC" tau="2.0"/>


    <!-- Vehicles, persons and containers (sorted by depart) -->

    <!-- Scenario 1 응급차량이 먼저 회전교차로에 진입했기 때문에 새로 진입하는 차량에 비해 우선권이 있다 
    <trip id="CE_VEH" type="CE-VEH" depart="0.00" departLane="0" from="WI" to="NO"/>
    <trip id="E_CDA" type="E-CDA" depart="16.00" departLane="0" from="EI" to="NO"/>
    <trip id="C_VEH" type="C-VEH" depart="16.00" departLane="1" from="EI" to="NO"/>
    -->

    <!-- Scenario 3 일반차량이 응급차량보다 먼저 회전교차로에 진입할 수 있지만, 응급차량을 위해 일반차량이 회전 교차로 진입을 하지 않고 대기해 응급 차량에게 양보 -->


    <trip id="C_VEH00" type="C-VEH" depart="0.00" departLane="0" from="WI" to="NO"/>
    <trip id="C_VEH01" type="C-VEH" depart="1.00" departLane="0" from="SI" to="NO"/>
    <trip id="C_VEH02" type="C-VEH" depart="2.00" departLane="0" from="WI" to="NO"/>
    <trip id="C_VEH03" type="C-VEH" depart="3.00" departLane="0" from="SI" to="NO"/>
    <trip id="C_VEH04" type="C-VEH" depart="4.00" departLane="0" from="WI" to="NO"/>
    <trip id="C_VEH05" type="C-VEH" depart="5.00" departLane="0" from="SI" to="NO"/>
    <trip id="C_VEH06" type="C-VEH" depart="6.00" departLane="0" from="WI" to="NO"/>
    <trip id="C_VEH07" type="C-VEH" depart="7.00" departLane="0" from="SI" to="NO"/>
    <trip id="C_VEH08" type="C-VEH" depart="8.00" departLane="0" from="WI" to="NO"/>
    <trip id="C_VEH09" type="C-VEH" depart="9.00" departLane="0" from="SI" to="NO"/>
    <trip id="C_VEH10" type="C-VEH" depart="10.00" departLane="0" from="WI" to="NO"/>
    <trip id="C_VEH11" type="C-VEH" depart="11.00" departLane="0" from="SI" to="NO"/>
    <trip id="C_VEH12" type="C-VEH" depart="12.00" departLane="0" from="WI" to="NO"/>
    <trip id="C_VEH13" type="C-VEH" depart="13.00" departLane="0" from="SI" to="NO"/>
    <trip id="C_VEH14" type="C-VEH" depart="14.00" departLane="0" from="WI" to="NO"/>
    <trip id="C_VEH15" type="C-VEH" depart="15.00" departLane="0" from="SI" to="NO"/>
    <trip id="C_VEH16" type="C-VEH" depart="16.00" departLane="0" from="WI" to="NO"/>
    <trip id="C_VEH17" type="C-VEH" depart="17.00" departLane="0" from="SI" to="NO"/>
    <!--<trip id="E_CDA" type="E-CDA" depart="20.00" departLane="0" from="WI" to="NO"/>-->
    <trip id="C_VEH22" type="C-VEH" depart="22.00" departLane="0" from="WI" to="NO"/>
    <trip id="C_VEH24" type="C-VEH" depart="24.00" departLane="0" from="SI" to="NO"/>
    <trip id="C_VEH25" type="C-VEH" depart="25.00" departLane="0" from="WI" to="NO"/>
    <trip id="C_VEH27" type="C-VEH" depart="27.00" departLane="0" from="SI" to="NO"/>
    <trip id="C_VEH31" type="C-VEH" depart="31.00" departLane="0" from="WI" to="NO"/>
    <trip id="C_VEH34" type="C-VEH" depart="34.00" departLane="0" from="SI" to="NO"/>
    <trip id="C_VEH39" type="C-VEH" depart="39.00" departLane="0" from="SI" to="NO"/>
    <trip id="C_VEH44" type="C-VEH" depart="44.00" departLane="0" from="SI" to="NO"/>
    <trip id="C_VEH49" type="C-VEH" depart="49.00" departLane="0" from="SI" to="NO"/>
    <trip id="C_VEH54" type="C-VEH" depart="54.00" departLane="0" from="SI" to="NO"/>
    <trip id="C_VEH59" type="C-VEH" depart="59.00" departLane="0" from="SI" to="NO"/>
    <trip id="CE_VEH" type="CE-VEH" depart="60.00" departLane="0" from="EI" to="NO"/>

</routes>
