<?xml version="1.0" encoding="UTF-8"?>

<routes xmlns:xsi="http://www.w3.org/2001/XMLSchema-instance" xsi:noNamespaceSchemaLocation="http://sumo.dlr.de/xsd/routes_file.xsd">
    <!-- VTypes -->
    <vType id="C-VEH" color="white" lcCooperativeRoundabout="0" accel="5.0" decel="4.5" carFollowModel="ACC"/>
    <vType id="CE-VEH" vClass="truck" color="red" carFollowModel="ACC"/>
    <vType id="E-CDA" color="yellow" lcCooperativeRoundabout="0" accel="5.0" decel="4.5" carFollowModel="ACC"/>
    <vType id="N-VEH" color="white" carFollowModel="ACC"/>
    <vType id="T-CDA" color="0,156,255" carFollowModel="ACC"/>

    <!-- Vehicles, persons and containers (sorted by depart) -->

    <!-- Scenario 1 응급차량이 먼저 회전교차로에 진입했기 때문에 새로 진입하는 차량에 비해 우선권이 있다 
    <trip id="CE_VEH" type="CE-VEH" depart="0.00" departLane="0" from="WI" to="NO"/>
    <trip id="E_CDA" type="E-CDA" depart="16.00" departLane="0" from="EI" to="NO"/>
    <trip id="C_VEH" type="C-VEH" depart="16.00" departLane="1" from="EI" to="NO"/>
    -->

    <!-- Scenario 3 일반차량이 응급차량보다 먼저 회전교차로에 진입할 수 있지만, 응급차량을 위해 일반차량이 회전 교차로 진입을 하지 않고 대기해 응급 차량에게 양보 -->


    <trip id="C_VEH01" type="C-VEH" depart="0.00" departLane="0" from="WI" to="NO"/>
    <trip id="C_VEH02" type="C-VEH" depart="3.00" departLane="0" from="WI" to="NO"/>
    <trip id="C_VEH03" type="C-VEH" depart="4.00" departLane="0" from="SI" to="NO"/>
    <trip id="C_VEH04" type="C-VEH" depart="9.00" departLane="0" from="SI" to="NO"/>
    <trip id="C_VEH05" type="C-VEH" depart="10.00" departLane="0" from="WI" to="NO"/>
    <trip id="CE_VEH" type="CE-VEH" depart="12.00" departLane="0" from="EI" to="NO"/>
    <trip id="C_VEH06" type="C-VEH" depart="14.00" departLane="0" from="SI" to="NO"/>
    <trip id="C_VEH07" type="C-VEH" depart="15.00" departLane="0" from="WI" to="NO"/>
    <trip id="C_VEH08" type="C-VEH" depart="17.00" departLane="0" from="WI" to="NO"/>
    <trip id="C_VEH09" type="C-VEH" depart="19.00" departLane="0" from="SI" to="NO"/>
    <trip id="E_CDA" type="E-CDA" depart="20.00" departLane="0" from="WI" to="NO"/>
    <trip id="C_VEH10" type="C-VEH" depart="24.00" departLane="0" from="SI" to="NO"/>
    <trip id="C_VEH11" type="C-VEH" depart="25.00" departLane="0" from="WI" to="NO"/>
    <trip id="C_VEH12" type="C-VEH" depart="29.00" departLane="0" from="SI" to="NO"/>
    <trip id="C_VEH13" type="C-VEH" depart="30.00" departLane="0" from="WI" to="NO"/>
    <trip id="C_VEH14" type="C-VEH" depart="34.00" departLane="0" from="SI" to="NO"/>
    <trip id="C_VEH15" type="C-VEH" depart="39.00" departLane="0" from="SI" to="NO"/>
    <trip id="C_VEH16" type="C-VEH" depart="44.00" departLane="0" from="SI" to="NO"/>
    <trip id="C_VEH17" type="C-VEH" depart="49.00" departLane="0" from="SI" to="NO"/>
    <trip id="C_VEH18" type="C-VEH" depart="54.00" departLane="0" from="SI" to="NO"/>
    <trip id="C_VEH19" type="C-VEH" depart="59.00" departLane="0" from="SI" to="NO"/>

</routes>
