<polygons>
    <poly id="antenna_area_200" color="1,0,0" shape="400.0,120.0 396.9615506024416,154.72963553338607 387.9385241571817,188.40402866513375 373.20508075688775,220.0 353.2088886237956,248.55752193730785 328.5575219373079,273.2088886237956 300.0,293.2050807568877 268.40402866513375,307.93852415718163 234.72963553338607,316.9615506024416 200.0,320.0 165.27036446661396,316.9615506024416 131.5959713348663,307.9385241571817 100.00000000000004,293.20508075688775 71.44247806269212,273.2088886237956 46.79111137620441,248.55752193730788 26.794919243112304,220.00000000000006 12.06147584281834,188.40402866513378 3.038449397558395,154.72963553338604 0.0,120.00000000000003 3.0384493975583666,85.270364466614 12.06147584281831,51.59597133486626 26.794919243112275,19.99999999999997 46.79111137620433,-8.557521937307797 71.44247806269212,-33.20888862379559 99.99999999999991,-53.20508075688767 131.5959713348663,-67.93852415718169 165.27036446661393,-76.9615506024416 199.99999999999997,-80.0 234.729635533386,-76.96155060244163 268.4040286651338,-67.93852415718166 299.9999999999999,-53.20508075688781 328.55752193730785,-33.208888623795616 353.2088886237956,-8.55752193730791 373.20508075688775,20.00000000000007 387.9385241571817,51.59597133486628 396.9615506024416,85.27036446661393 400.0,120.0"/>
</polygons>