<polygons>
    <poly id="antenna_area_400" color="1,0,0" shape="600.0,120.0 593.9231012048832,189.45927106677215 575.8770483143634,256.8080573302675 546.4101615137755,320.0 506.41777724759123,377.1150438746157 457.11504387461576,426.41777724759123 400.00000000000006,466.41016151377545 336.8080573302675,495.8770483143633 269.45927106677215,513.9231012048832 200.00000000000003,520.0 130.54072893322788,513.9231012048832 63.19194266973261,495.8770483143634 8.526512829121202e-14,466.4101615137755 -57.115043874615765,426.41777724759123 -106.41777724759118,377.11504387461576 -146.4101615137754,320.0000000000001 -175.87704831436332,256.80805733026756 -193.9231012048832,189.4592710667721 -200.0,120.00000000000004 -193.92310120488327,50.540728933227996 -175.87704831436338,-16.808057330267474 -146.41016151377545,-80.00000000000006 -106.41777724759135,-137.1150438746156 -57.115043874615765,-186.41777724759118 -1.7053025658242404e-13,-226.41016151377534 63.19194266973258,-255.87704831436338 130.54072893322785,-273.9231012048832 199.99999999999991,-280.0 269.459271066772,-273.92310120488327 336.8080573302676,-255.87704831436332 399.9999999999998,-226.41016151377562 457.1150438746157,-186.41777724759123 506.4177772475911,-137.11504387461582 546.4101615137755,-79.99999999999986 575.8770483143634,-16.808057330267445 593.9231012048832,50.54072893322784 600.0,120.0"/>
</polygons>