<polygons>
    <poly id="antenna_area_100" color="1,0,0" shape="300.0,120.0 298.4807753012208,137.36481776669302 293.9692620785909,154.20201433256688 286.6025403784439,170.0 276.6044443118978,184.27876096865393 264.27876096865396,196.6044443118978 250.0,206.60254037844385 234.20201433256688,213.96926207859082 217.36481776669305,218.4807753012208 200.0,220.0 182.63518223330698,218.4807753012208 165.79798566743315,213.96926207859084 150.00000000000003,206.60254037844388 135.72123903134604,196.6044443118978 123.3955556881022,184.27876096865396 113.39745962155615,170.00000000000003 106.03073792140917,154.20201433256688 101.5192246987792,137.36481776669302 100.0,120.00000000000001 101.51922469877918,102.635182233307 106.03073792140916,85.79798566743312 113.39745962155614,69.99999999999999 123.39555568810216,55.7212390313461 135.72123903134604,43.395555688102206 149.99999999999994,33.397459621556166 165.79798566743315,26.030737921409155 182.63518223330698,21.519224698779198 199.99999999999997,20.0 217.364817766693,21.519224698779183 234.2020143325669,26.03073792140917 249.99999999999994,33.397459621556095 264.27876096865396,43.39555568810219 276.6044443118978,55.721239031346045 286.6025403784439,70.00000000000003 293.9692620785909,85.79798566743314 298.4807753012208,102.63518223330696 300.0,120.0"/>
</polygons>