<polygons>
    <poly id="antenna_area_300" color="1,0,0" shape="500.0,120.0 495.4423259036624,172.0944533000791 481.9077862357725,222.60604299770063 459.8076211353316,270.0 429.81333293569344,312.83628290596175 392.8362829059618,349.81333293569344 350.0,379.8076211353316 302.6060429977006,401.9077862357725 252.09445330007912,415.4423259036624 200.00000000000003,420.0 147.9055466999209,415.4423259036624 97.39395700229946,401.9077862357725 50.00000000000006,379.8076211353316 7.163717094038191,349.81333293569344 -29.81333293569338,312.83628290596187 -59.807621135331544,270.0000000000001 -81.9077862357725,222.60604299770068 -95.44232590366238,172.09445330007907 -100.0,120.00000000000004 -95.44232590366244,67.90554669992099 -81.9077862357725,17.393957002299402 -59.8076211353316,-30.00000000000003 -29.813332935693495,-72.83628290596167 7.163717094038162,-109.81333293569338 49.99999999999986,-139.8076211353315 97.39395700229943,-161.9077862357725 147.9055466999209,-175.44232590366238 199.99999999999994,-180.0 252.09445330007898,-175.44232590366244 302.6060429977007,-161.9077862357725 349.9999999999998,-139.80762113533171 392.83628290596175,-109.81333293569344 429.8133329356933,-72.83628290596187 459.80762113533166,-29.999999999999886 481.9077862357725,17.393957002299416 495.4423259036624,67.90554669992088 500.0,120.0"/>
</polygons>