<polygons>
    <poly id="antenna_area_50" color="1,0,0" shape="250.0,120.0 249.2403876506104,128.6824088833465 246.98463103929544,137.10100716628344 243.30127018922195,145.0 238.3022221559489,152.13938048432698 232.13938048432698,158.3022221559489 225.0,163.30127018922192 217.10100716628344,166.9846310392954 208.6824088833465,169.2403876506104 200.0,170.0 191.3175911166535,169.2403876506104 182.8989928337166,166.98463103929544 175.0,163.30127018922195 167.86061951567302,158.3022221559489 161.6977778440511,152.13938048432698 156.69872981077808,145.00000000000003 153.0153689607046,137.10100716628344 150.7596123493896,128.6824088833465 150.0,120.0 150.75961234938958,111.3175911166535 153.01536896070456,102.89899283371656 156.69872981077808,95.0 161.69777784405107,87.86061951567305 167.86061951567302,81.6977778440511 174.99999999999997,76.69872981077808 182.89899283371656,73.01536896070458 191.3175911166535,70.7596123493896 200.0,70.0 208.6824088833465,70.75961234938958 217.10100716628344,73.01536896070459 224.99999999999997,76.69872981077805 232.13938048432698,81.6977778440511 238.3022221559489,87.86061951567302 243.30127018922195,95.00000000000001 246.98463103929544,102.89899283371656 249.2403876506104,111.31759111665347 250.0,120.0"/>
</polygons>