<polygons>
    <poly id="antenna_area_500" color="1,0,0" shape="700.0,120.0 692.403876506104,206.82408883346517 669.8463103929541,291.0100716628343 633.0127018922194,370.0 583.022221559489,441.3938048432696 521.3938048432697,503.022221559489 450.00000000000006,553.0127018922193 371.01007166283443,589.8463103929541 286.8240888334652,612.403876506104 200.00000000000003,620.0 113.17591116653485,612.403876506104 28.989928337165765,589.8463103929541 -49.999999999999886,553.0127018922194 -121.39380484326966,503.022221559489 -183.02222155948897,441.3938048432697 -233.01270189221924,370.00000000000017 -269.84631039295414,291.01007166283443 -292.403876506104,206.82408883346514 -300.0,120.00000000000006 -292.40387650610404,33.17591116653499 -269.8463103929542,-51.01007166283432 -233.0127018922193,-130.00000000000006 -183.0222215594892,-201.39380484326944 -121.39380484326972,-263.02222155948897 -50.00000000000023,-313.0127018922192 28.989928337165736,-349.8463103929542 113.17591116653483,-372.403876506104 199.99999999999991,-380.0 286.824088833465,-372.40387650610404 371.0100716628345,-349.84631039295414 449.99999999999966,-313.0127018922195 521.3938048432697,-263.0222215594891 583.0222215594889,-201.39380484326978 633.0127018922194,-129.99999999999983 669.8463103929541,-51.01007166283429 692.403876506104,33.1759111665348 700.0,120.0"/>
</polygons>