<?xml version="1.0" encoding="UTF-8"?>

<!-- generated on 2024-11-03 10:35:54 by Eclipse SUMO netedit Version 81b40c8c3af
<neteditConfiguration xmlns:xsi="http://www.w3.org/2001/XMLSchema-instance" xsi:noNamespaceSchemaLocation="http://sumo.dlr.de/xsd/neteditConfiguration.xsd">

    <input>
        <sumo-net-file value="/home/lab1/Documents/git/new_sumo/sumo/sim/coautodrv/net/test.net.xml"/>
    </input>

    <output>
        <output-file value="/home/lab1/Documents/git/new_sumo/sumo/sim/coautodrv/net/test.net.xml"/>
    </output>

    <processing>
        <offset.disable-normalization value="true"/>
    </processing>

    <junctions>
        <no-turnarounds value="true"/>
    </junctions>

    <netedit>
        <new-network value="false"/>
    </netedit>

</neteditConfiguration>
-->

<net version="1.20" junctionCornerDetail="5" limitTurnSpeed="5.50" xmlns:xsi="http://www.w3.org/2001/XMLSchema-instance" xsi:noNamespaceSchemaLocation="http://sumo.dlr.de/xsd/net_file.xsd">

    <location netOffset="0.00,0.00" convBoundary="0.00,-100.00,100.00,400.00" origBoundary="10000000000.00,10000000000.00,-10000000000.00,-10000000000.00" projParameter="!"/>

    <edge id=":A1_0" function="internal">
        <lane id=":A1_0_0" index="0" speed="13.89" length="14.40" shape="-1.60,7.20 -1.60,-7.20"/>
    </edge>
    <edge id=":A1_1" function="internal">
        <lane id=":A1_1_0" index="0" speed="8.00" length="4.07" shape="-1.60,7.20 -1.05,3.35 -0.96,3.20"/>
    </edge>
    <edge id=":A1_6" function="internal">
        <lane id=":A1_6_0" index="0" speed="8.00" length="10.13" shape="-0.96,3.20 0.60,0.60 3.35,-1.05 7.20,-1.60"/>
    </edge>
    <edge id=":A1_2" function="internal">
        <lane id=":A1_2_0" index="0" speed="6.51" length="9.03" shape="7.20,1.60 4.75,1.95 3.00,3.00 1.95,4.75 1.60,7.20"/>
    </edge>
    <edge id=":A1_3" function="internal">
        <lane id=":A1_3_0" index="0" speed="8.00" length="14.19" shape="7.20,1.60 3.35,1.05 0.60,-0.60 -1.05,-3.35 -1.60,-7.20"/>
    </edge>
    <edge id=":A1_4" function="internal">
        <lane id=":A1_4_0" index="0" speed="6.51" length="9.03" shape="1.60,-7.20 1.95,-4.75 3.00,-3.00 4.75,-1.95 7.20,-1.60"/>
    </edge>
    <edge id=":A1_5" function="internal">
        <lane id=":A1_5_0" index="0" speed="13.89" length="14.40" shape="1.60,-7.20 1.60,7.20"/>
    </edge>
    <edge id=":A2_0" function="internal">
        <lane id=":A2_0_0" index="0" speed="13.89" length="14.40" shape="-1.60,307.20 -1.60,292.80"/>
    </edge>
    <edge id=":A2_1" function="internal">
        <lane id=":A2_1_0" index="0" speed="8.00" length="4.07" shape="-1.60,307.20 -1.05,303.35 -0.96,303.20"/>
    </edge>
    <edge id=":A2_6" function="internal">
        <lane id=":A2_6_0" index="0" speed="8.00" length="10.13" shape="-0.96,303.20 0.60,300.60 3.35,298.95 7.20,298.40"/>
    </edge>
    <edge id=":A2_2" function="internal">
        <lane id=":A2_2_0" index="0" speed="6.51" length="9.03" shape="7.20,301.60 4.75,301.95 3.00,303.00 1.95,304.75 1.60,307.20"/>
    </edge>
    <edge id=":A2_3" function="internal">
        <lane id=":A2_3_0" index="0" speed="8.00" length="14.19" shape="7.20,301.60 3.35,301.05 0.60,299.40 -1.05,296.65 -1.60,292.80"/>
    </edge>
    <edge id=":A2_4" function="internal">
        <lane id=":A2_4_0" index="0" speed="6.51" length="9.03" shape="1.60,292.80 1.95,295.25 3.00,297.00 4.75,298.05 7.20,298.40"/>
    </edge>
    <edge id=":A2_5" function="internal">
        <lane id=":A2_5_0" index="0" speed="13.89" length="14.40" shape="1.60,292.80 1.60,307.20"/>
    </edge>
    <edge id=":B0_0" function="internal">
        <lane id=":B0_0_0" index="0" speed="3.90" length="2.58" shape="98.40,3.20 98.30,2.50 98.00,2.00 97.50,1.70 96.80,1.60"/>
    </edge>
    <edge id=":B0_1" function="internal">
        <lane id=":B0_1_0" index="0" speed="6.08" length="7.74" shape="96.80,-1.60 98.90,-1.30 100.40,-0.40 101.30,1.10 101.60,3.20"/>
    </edge>
    <edge id=":B1_0" function="internal">
        <lane id=":B1_0_0" index="0" speed="6.08" length="7.74" shape="101.60,296.80 101.30,298.90 100.40,300.40 98.90,301.30 96.80,301.60"/>
    </edge>
    <edge id=":B1_1" function="internal">
        <lane id=":B1_1_0" index="0" speed="3.90" length="2.58" shape="96.80,298.40 97.50,298.30 98.00,298.00 98.30,297.50 98.40,296.80"/>
    </edge>

    <edge id="-E0" from="A2" to="A1" priority="-1">
        <lane id="-E0_0" index="0" speed="13.89" length="285.60" shape="-1.60,292.80 -1.60,7.20"/>
    </edge>
    <edge id="-E1" from="A1" to="A0" priority="-1">
        <lane id="-E1_0" index="0" speed="13.89" length="92.80" shape="-1.60,-7.20 -1.60,-100.00"/>
    </edge>
    <edge id="-E2" from="B0" to="A1" priority="-1">
        <lane id="-E2_0" index="0" speed="13.89" length="89.60" shape="96.80,1.60 7.20,1.60"/>
    </edge>
    <edge id="-E3" from="B1" to="B0" priority="-1">
        <lane id="-E3_0" index="0" speed="13.89" length="293.60" shape="98.40,296.80 98.40,3.20"/>
    </edge>
    <edge id="-E8" from="A3" to="A2" priority="-1">
        <lane id="-E8_0" index="0" speed="13.89" length="92.80" shape="-1.60,400.00 -1.60,307.20"/>
    </edge>
    <edge id="-E9" from="B1" to="A2" priority="-1">
        <lane id="-E9_0" index="0" speed="13.89" length="89.60" shape="96.80,301.60 7.20,301.60"/>
    </edge>
    <edge id="E0" from="A1" to="A2" priority="-1">
        <lane id="E0_0" index="0" speed="13.89" length="285.60" shape="1.60,7.20 1.60,292.80"/>
    </edge>
    <edge id="E1" from="A0" to="A1" priority="-1">
        <lane id="E1_0" index="0" speed="13.89" length="92.80" shape="1.60,-100.00 1.60,-7.20"/>
    </edge>
    <edge id="E2" from="A1" to="B0" priority="-1">
        <lane id="E2_0" index="0" speed="13.89" length="89.60" shape="7.20,-1.60 96.80,-1.60"/>
    </edge>
    <edge id="E3" from="B0" to="B1" priority="-1">
        <lane id="E3_0" index="0" speed="13.89" length="293.60" shape="101.60,3.20 101.60,296.80"/>
    </edge>
    <edge id="E8" from="A2" to="A3" priority="-1">
        <lane id="E8_0" index="0" speed="13.89" length="92.80" shape="1.60,307.20 1.60,400.00"/>
    </edge>
    <edge id="E9" from="A2" to="B1" priority="-1">
        <lane id="E9_0" index="0" speed="13.89" length="89.60" shape="7.20,298.40 96.80,298.40"/>
    </edge>

    <junction id="A0" type="dead_end" x="0.00" y="-100.00" incLanes="-E1_0" intLanes="" shape="0.00,-100.00 -3.20,-100.00 0.00,-100.00"/>
    <junction id="A1" type="priority" x="0.00" y="0.00" incLanes="-E0_0 -E2_0 E1_0" intLanes=":A1_0_0 :A1_6_0 :A1_2_0 :A1_3_0 :A1_4_0 :A1_5_0" shape="-3.20,7.20 3.20,7.20 3.64,4.98 4.20,4.20 4.98,3.64 5.98,3.31 7.20,3.20 7.20,-3.20 4.98,-3.64 4.20,-4.20 3.64,-4.98 3.31,-5.98 3.20,-7.20 -3.20,-7.20">
        <request index="0" response="000000" foes="001000" cont="0"/>
        <request index="1" response="110000" foes="111000" cont="1"/>
        <request index="2" response="100000" foes="100000" cont="0"/>
        <request index="3" response="100011" foes="100011" cont="0"/>
        <request index="4" response="000000" foes="000010" cont="0"/>
        <request index="5" response="000000" foes="001110" cont="0"/>
    </junction>
    <junction id="A2" type="priority" x="0.00" y="300.00" incLanes="-E8_0 -E9_0 E0_0" intLanes=":A2_0_0 :A2_6_0 :A2_2_0 :A2_3_0 :A2_4_0 :A2_5_0" shape="-3.20,307.20 3.20,307.20 3.64,304.98 4.20,304.20 4.98,303.64 5.98,303.31 7.20,303.20 7.20,296.80 4.98,296.36 4.20,295.80 3.64,295.02 3.31,294.02 3.20,292.80 -3.20,292.80">
        <request index="0" response="000000" foes="001000" cont="0"/>
        <request index="1" response="110000" foes="111000" cont="1"/>
        <request index="2" response="100000" foes="100000" cont="0"/>
        <request index="3" response="100011" foes="100011" cont="0"/>
        <request index="4" response="000000" foes="000010" cont="0"/>
        <request index="5" response="000000" foes="001110" cont="0"/>
    </junction>
    <junction id="A3" type="dead_end" x="0.00" y="400.00" incLanes="E8_0" intLanes="" shape="0.00,400.00 3.20,400.00 0.00,400.00"/>
    <junction id="B0" type="priority" x="100.00" y="0.00" incLanes="-E3_0 E2_0" intLanes=":B0_0_0 :B0_1_0" shape="96.80,3.20 103.20,3.20 102.49,-0.36 101.60,-1.60 100.36,-2.49 98.76,-3.02 96.80,-3.20">
        <request index="0" response="00" foes="00" cont="0"/>
        <request index="1" response="00" foes="00" cont="0"/>
    </junction>
    <junction id="B1" type="priority" x="100.00" y="300.00" incLanes="E3_0 E9_0" intLanes=":B1_0_0 :B1_1_0" shape="103.20,296.80 96.80,296.80 96.80,303.20 100.36,302.49 101.60,301.60 102.49,300.36 103.02,298.76">
        <request index="0" response="00" foes="00" cont="0"/>
        <request index="1" response="00" foes="00" cont="0"/>
    </junction>

    <junction id=":A1_6_0" type="internal" x="-0.96" y="3.20" incLanes=":A1_1_0 E1_0" intLanes=":A1_3_0 :A1_4_0 :A1_5_0"/>
    <junction id=":A2_6_0" type="internal" x="-0.96" y="303.20" incLanes=":A2_1_0 E0_0" intLanes=":A2_3_0 :A2_4_0 :A2_5_0"/>

    <connection from="-E0" to="-E1" fromLane="0" toLane="0" via=":A1_0_0" dir="s" state="M"/>
    <connection from="-E0" to="E2" fromLane="0" toLane="0" via=":A1_1_0" dir="l" state="m"/>
    <connection from="-E2" to="E0" fromLane="0" toLane="0" via=":A1_2_0" dir="r" state="m"/>
    <connection from="-E2" to="-E1" fromLane="0" toLane="0" via=":A1_3_0" dir="l" state="m"/>
    <connection from="-E3" to="-E2" fromLane="0" toLane="0" via=":B0_0_0" dir="r" state="M"/>
    <connection from="-E8" to="-E0" fromLane="0" toLane="0" via=":A2_0_0" dir="s" state="M"/>
    <connection from="-E8" to="E9" fromLane="0" toLane="0" via=":A2_1_0" dir="l" state="m"/>
    <connection from="-E9" to="E8" fromLane="0" toLane="0" via=":A2_2_0" dir="r" state="m"/>
    <connection from="-E9" to="-E0" fromLane="0" toLane="0" via=":A2_3_0" dir="l" state="m"/>
    <connection from="E0" to="E9" fromLane="0" toLane="0" via=":A2_4_0" dir="r" state="M"/>
    <connection from="E0" to="E8" fromLane="0" toLane="0" via=":A2_5_0" dir="s" state="M"/>
    <connection from="E1" to="E2" fromLane="0" toLane="0" via=":A1_4_0" dir="r" state="M"/>
    <connection from="E1" to="E0" fromLane="0" toLane="0" via=":A1_5_0" dir="s" state="M"/>
    <connection from="E2" to="E3" fromLane="0" toLane="0" via=":B0_1_0" dir="l" state="M"/>
    <connection from="E3" to="-E9" fromLane="0" toLane="0" via=":B1_0_0" dir="l" state="M"/>
    <connection from="E9" to="-E3" fromLane="0" toLane="0" via=":B1_1_0" dir="r" state="M"/>

    <connection from=":A1_0" to="-E1" fromLane="0" toLane="0" dir="s" state="M"/>
    <connection from=":A1_1" to="E2" fromLane="0" toLane="0" via=":A1_6_0" dir="l" state="m"/>
    <connection from=":A1_6" to="E2" fromLane="0" toLane="0" dir="l" state="M"/>
    <connection from=":A1_2" to="E0" fromLane="0" toLane="0" dir="r" state="M"/>
    <connection from=":A1_3" to="-E1" fromLane="0" toLane="0" dir="l" state="M"/>
    <connection from=":A1_4" to="E2" fromLane="0" toLane="0" dir="r" state="M"/>
    <connection from=":A1_5" to="E0" fromLane="0" toLane="0" dir="s" state="M"/>
    <connection from=":A2_0" to="-E0" fromLane="0" toLane="0" dir="s" state="M"/>
    <connection from=":A2_1" to="E9" fromLane="0" toLane="0" via=":A2_6_0" dir="l" state="m"/>
    <connection from=":A2_6" to="E9" fromLane="0" toLane="0" dir="l" state="M"/>
    <connection from=":A2_2" to="E8" fromLane="0" toLane="0" dir="r" state="M"/>
    <connection from=":A2_3" to="-E0" fromLane="0" toLane="0" dir="l" state="M"/>
    <connection from=":A2_4" to="E9" fromLane="0" toLane="0" dir="r" state="M"/>
    <connection from=":A2_5" to="E8" fromLane="0" toLane="0" dir="s" state="M"/>
    <connection from=":B0_0" to="-E2" fromLane="0" toLane="0" dir="r" state="M"/>
    <connection from=":B0_1" to="E3" fromLane="0" toLane="0" dir="l" state="M"/>
    <connection from=":B1_0" to="-E9" fromLane="0" toLane="0" dir="l" state="M"/>
    <connection from=":B1_1" to="-E3" fromLane="0" toLane="0" dir="r" state="M"/>

</net>
